# A-A
# Created by GaussView 6.1.1
#

#
#

@<TRIPOS>MOLECULE
Molecule Name
74 83
SMALL
NO_CHARGES


@<TRIPOS>ATOM
1 C1     2.4261     1.5131     0.1094 C
2 C2     3.7592     1.7197     0.3040 C
3 C3     4.7121     0.6704     0.1367 C
4 C4     4.2696    -0.6577    -0.2210 C
5 C5     2.8656    -0.8354    -0.4063 C
6 C6     1.9546     0.2248    -0.2729 C
7 C7     6.0724     0.9132     0.3256 C
8 C8     5.2430    -1.6566    -0.3530 C
9 C9     6.6068    -1.4160    -0.1622 C
10 C10     7.0481    -0.0838     0.1882 C
11 C11     8.4528     0.0927     0.3664 C
12 C12     9.3367    -0.9712     0.2097 C
13 C13     8.8852    -2.2644    -0.1321 C
14 C14     7.5469    -2.4793    -0.3142 C
15 H15     6.3563     1.9236     0.5912 H
16 H16     1.7221     2.3261     0.2163 H
17 H17     4.1213     2.7047     0.5878 H
18 H18     4.9614    -2.6674    -0.6171 H
19 H19     9.5993    -3.0754    -0.2481 H
20 H20     7.1752    -3.4660    -0.5785 H
21 C21    10.5277     0.9788     0.7738 C
22 N22     9.1674     1.2529     0.7025 N
23 O23    11.3938     1.7912     1.0447 O
24 C24     8.6851     2.5886     0.9556 C
25 H25     8.1787     3.0053     0.0788 H
26 H26     8.0137     2.6162     1.8202 H
27 H27     9.5656     3.1971     1.1755 H
28 N28     2.1771    -2.0117    -0.6869 N
29 C29     0.6203    -0.3053    -0.4362 C
30 C30     0.8112    -1.7703    -0.7008 C
31 O31    -0.0155    -2.6285    -0.9649 O
32 C32    10.6795    -0.4757     0.4559 C
33 C33    -8.8852     2.2644    -0.1321 C
34 C34    -7.5469     2.4793    -0.3142 C
35 C35    -6.6068     1.4160    -0.1622 C
36 C36    -7.0481     0.0838     0.1882 C
37 C37    -8.4528    -0.0927     0.3664 C
38 C38    -9.3367     0.9711     0.2097 C
39 C39    -5.2430     1.6566    -0.3530 C
40 C40    -6.0724    -0.9132     0.3256 C
41 C41    -4.7121    -0.6703     0.1368 C
42 C42    -4.2696     0.6577    -0.2210 C
43 C43    -2.8656     0.8354    -0.4063 C
44 C44    -1.9546    -0.2248    -0.2729 C
45 C45    -2.4261    -1.5130     0.1094 C
46 C46    -3.7592    -1.7197     0.3040 C
47 H47    -4.9614     2.6674    -0.6170 H
48 H48    -9.5993     3.0753    -0.2480 H
49 H49    -7.1752     3.4660    -0.5785 H
50 H50    -6.3563    -1.9236     0.5912 H
51 H51    -1.7221    -2.3260     0.2163 H
52 H52    -4.1212    -2.7047     0.5878 H
53 C53    -0.8112     1.7703    -0.7008 C
54 N54    -2.1771     2.0118    -0.6869 N
55 O55     0.0155     2.6285    -0.9650 O
56 C56    -2.6743     3.3322    -0.9894 C
57 H57    -3.3341     3.3175    -1.8627 H
58 H58    -3.1970     3.7730    -0.1341 H
59 H59    -1.8000     3.9451    -1.2197 H
60 N60    -9.1674    -1.2529     0.7025 N
61 C61   -10.6795     0.4757     0.4560 C
62 C62   -10.5277    -0.9788     0.7739 C
63 O63   -11.3938    -1.7913     1.0447 O
64 C64    -0.6203     0.3053    -0.4362 C
65 C65     2.6743    -3.3322    -0.9894 C
66 H66     3.3341    -3.3175    -1.8627 H
67 H67     3.1970    -3.7730    -0.1341 H
68 H68     1.8000    -3.9451    -1.2197 H
69 C69    -8.6850    -2.5886     0.9557 C
70 H70    -8.1787    -3.0053     0.0788 H
71 H71    -8.0136    -2.6162     1.8203 H
72 H72    -9.5656    -3.1971     1.1755 H
73 H73    11.5904    -1.0357     0.4179 H
74 H74   -11.5904     1.0357     0.4179 H
@<TRIPOS>BOND
1 1 2 2
2 1 6 Ar
3 1 16 1
4 2 3 Ar
5 2 17 1
6 3 4 Ar
7 3 7 Ar
8 4 5 Ar
9 4 8 Ar
10 5 6 Ar
11 5 28 1
12 6 29 Ar
13 7 10 Ar
14 7 15 1
15 8 9 Ar
16 8 18 1
17 9 10 Ar
18 9 14 Ar
19 10 11 Ar
20 11 12 Ar
21 11 22 1
22 12 13 Ar
23 12 32 1
24 13 14 2
25 13 19 1
26 14 20 1
27 21 22 1
28 21 23 2
29 21 32 1
30 22 24 1
31 24 25 1
32 24 26 1
33 24 27 1
34 28 30 1
35 28 65 1
36 29 30 1
37 29 64 2
38 30 31 2
39 32 73 1
40 33 34 2
41 33 38 Ar
42 33 48 1
43 34 35 Ar
44 34 49 1
45 35 36 Ar
46 35 39 Ar
47 36 37 Ar
48 36 40 Ar
49 37 38 Ar
50 37 60 1
51 38 61 1
52 39 42 Ar
53 39 47 1
54 40 41 Ar
55 40 50 1
56 41 42 Ar
57 41 46 Ar
58 42 43 Ar
59 43 44 Ar
60 43 54 1
61 44 45 Ar
62 44 64 Ar
63 45 46 2
64 45 51 1
65 46 52 1
66 53 54 1
67 53 55 2
68 53 64 1
69 54 56 1
70 56 57 1
71 56 58 1
72 56 59 1
73 60 62 1
74 60 69 1
75 61 62 1
76 61 74 1
77 62 63 2
78 65 66 1
79 65 67 1
80 65 68 1
81 69 70 1
82 69 71 1
83 69 72 1
