# A-N
# Created by GaussView 6.1.1
#

#
#

@<TRIPOS>MOLECULE
Molecule Name
68 76
SMALL
NO_CHARGES


@<TRIPOS>ATOM
1 C1    -1.4759     1.6356    -0.1141 C
2 C2    -2.8187     1.7851    -0.2945 C
3 C3    -3.7237     0.6955    -0.1198 C
4 C4    -3.2204    -0.6134     0.2273 C
5 C5    -1.8072    -0.7316     0.3917 C
6 C6    -0.9453     0.3675     0.2573 C
7 C7    -5.0956     0.8809    -0.2897 C
8 C8    -4.1489    -1.6523     0.3728 C
9 C9    -5.5242    -1.4691     0.2023 C
10 C10    -6.0261    -0.1566    -0.1410 C
11 C11    -7.4395    -0.0395    -0.2995 C
12 C12    -8.2755    -1.1393    -0.1296 C
13 C13    -7.7652    -2.4121     0.2060 C
14 C14    -6.4166    -2.5707     0.3683 C
15 H15    -5.4257     1.8791    -0.5481 H
16 H16    -0.8099     2.4792    -0.2254 H
17 H17    -3.2256     2.7544    -0.5712 H
18 H18    -3.8217    -2.6500     0.6337 H
19 H19    -8.4430    -3.2521     0.3327 H
20 H20    -6.0001    -3.5408     0.6272 H
21 C21    -9.5554     0.7583    -0.6775 C
22 N22    -8.2068     1.0894    -0.6259 N
23 O23   -10.4584     1.5333    -0.9368 O
24 C24    -7.7844     2.4432    -0.8899 C
25 H25    -7.2856     2.8849    -0.0210 H
26 H26    -7.1252     2.4953    -1.7628 H
27 H27    -8.6925     3.0130    -1.1012 H
28 N28    -1.0650    -1.8805     0.6515 N
29 C29     0.4140    -0.1054     0.4041 C
30 C30     0.2888    -1.5829     0.6449 C
31 O31     1.1545    -2.4125     0.8731 O
32 C32    -9.6413    -0.7008    -0.3564 C
33 C33     7.4593     2.1177    -0.1076 C
34 C34     6.1119     2.2529     0.1213 C
35 C35     7.1734    -0.2846    -0.3821 C
36 C36     7.9938     0.8455    -0.3479 C
37 C37     5.7703    -0.1872    -0.1918 C
38 C38     5.2413     1.1276     0.1024 C
39 C39     3.8425     1.2173     0.3330 C
40 C40     2.9853     0.1050     0.2354 C
41 C41     3.5284    -1.1507    -0.1148 C
42 C42     4.8776    -1.2870    -0.3061 C
43 H43     8.1062     2.9907    -0.0986 H
44 H44     5.7184     3.2416     0.3029 H
45 H45     2.8789    -2.0103    -0.1976 H
46 H46     5.2571    -2.2655    -0.5617 H
47 C47     1.7406     2.0350     0.6725 C
48 N48     3.0875     2.3558     0.6223 N
49 O49     0.8726     2.8383     0.9756 O
50 C50     3.5092     3.6774     1.0263 C
51 H51     4.2464     3.6240     1.8328 H
52 H52     3.9152     4.2518     0.1872 H
53 H53     2.6154     4.1877     1.3920 H
54 N54     7.9634    -1.4196    -0.6387 N
55 C55     9.3592     0.4217    -0.6024 C
56 C56     9.2982    -1.0618    -0.7784 C
57 O57    10.2141    -1.8358    -0.9928 O
58 C58     1.6223     0.5633     0.4064 C
59 C59    -1.5009    -3.2285     0.9261 C
60 H60    -2.1422    -3.2656     1.8124 H
61 H61    -2.0229    -3.6664     0.0690 H
62 H62    -0.5977    -3.8105     1.1217 H
63 C63     7.5929    -2.8144    -0.6857 C
64 H64     7.0885    -3.1227     0.2352 H
65 H65     6.9578    -3.0367    -1.5494 H
66 H66     8.5250    -3.3755    -0.7869 H
67 H67   -10.5273    -1.2985    -0.3046 H
68 H68    10.2290     1.0427    -0.6536 H
@<TRIPOS>BOND
1 1 2 2
2 1 6 Ar
3 1 16 1
4 2 3 Ar
5 2 17 1
6 3 4 Ar
7 3 7 Ar
8 4 5 Ar
9 4 8 Ar
10 5 6 Ar
11 5 28 1
12 6 29 Ar
13 7 10 Ar
14 7 15 1
15 8 9 Ar
16 8 18 1
17 9 10 Ar
18 9 14 Ar
19 10 11 Ar
20 11 12 Ar
21 11 22 1
22 12 13 Ar
23 12 32 1
24 13 14 2
25 13 19 1
26 14 20 1
27 21 22 1
28 21 23 2
29 21 32 1
30 22 24 1
31 24 25 1
32 24 26 1
33 24 27 1
34 28 30 1
35 28 59 1
36 29 30 1
37 29 58 2
38 30 31 2
39 32 67 1
40 33 34 2
41 33 36 Ar
42 33 43 1
43 34 38 Ar
44 34 44 1
45 35 36 Ar
46 35 37 Ar
47 35 54 1
48 36 55 1
49 37 38 Ar
50 37 42 Ar
51 38 39 Ar
52 39 40 Ar
53 39 48 1
54 40 41 Ar
55 40 58 1
56 41 42 2
57 41 45 1
58 42 46 1
59 47 48 1
60 47 49 2
61 47 58 1
62 48 50 1
63 50 51 1
64 50 52 1
65 50 53 1
66 54 56 1
67 54 63 1
68 55 56 1
69 55 68 1
70 56 57 2
71 59 60 1
72 59 61 1
73 59 62 1
74 63 64 1
75 63 65 1
76 63 66 1
