# BDOPV_TCCT
# Created by GaussView 6.1.1
#

#
#

@<TRIPOS>MOLECULE
Molecule Name
72 80
SMALL
NO_CHARGES


@<TRIPOS>ATOM
1 C1     3.3163     1.2663     0.0675 C
2 C2     4.6901     1.2471     0.1408 C
3 C3     5.5131     0.1061     0.0482 C
4 C4     4.8773    -1.1348    -0.1365 C
5 C5     3.5035    -1.1162    -0.2099 C
6 C6     2.6806     0.0255    -0.1172 C
7 H7     2.7633     2.1911     0.1333 H
8 H8     5.4310    -2.0592    -0.2030 H
9 C9     1.3086    -0.4538    -0.2024 C
10 C10     6.7439     2.0755     0.3034 C
11 C11     6.8867     0.5852     0.1359 C
12 C12     1.4478    -1.9404    -0.3711 C
13 O13     5.4179     2.3976     0.3025 O
14 O14     2.7743    -2.2654    -0.3712 O
15 O15     7.5695     2.9381     0.4485 O
16 O16     0.6197    -2.8017    -0.5169 O
17 C17     8.1083    -0.0510     0.0972 C
18 C18     8.2335    -1.5622     0.0747 C
19 C19     0.0847     0.1832    -0.1571 C
20 C20    -0.0426     1.6948    -0.1396 C
21 N21     9.5738    -1.8563     0.0438 N
22 N22    -1.3844     1.9878    -0.0937 N
23 O23     7.3585    -2.4126     0.1010 O
24 O24     0.8299     2.5460    -0.1809 O
25 C25    10.0931    -3.1982     0.0255 C
26 H26     9.2419    -3.8813     0.0480 H
27 H27    10.6773    -3.3765    -0.8846 H
28 H28    10.7273    -3.3804     0.9006 H
29 C29    -1.9059     3.3290    -0.0763 C
30 H30    -2.5522     3.5049    -0.9438 H
31 H31    -2.4777     3.5123     0.8407 H
32 H32    -1.0562     4.0131    -0.1146 H
33 C33    10.3314    -0.6970     0.0348 C
34 C34     9.4857     0.4413     0.0767 C
35 C35    -1.2840    -0.3078    -0.1218 C
36 C36    -2.1366     0.8266    -0.0751 C
37 C37    10.0961     1.7029     0.0522 C
38 C38    11.4867     1.8000    -0.0052 C
39 C39    12.2873     0.6597    -0.0357 C
40 C40    11.7126    -0.6138    -0.0175 C
41 C41    -1.9029    -1.5676    -0.0850 C
42 C42    -3.5117     0.7444     0.0005 C
43 C43    -3.2857    -1.6655    -0.0133 C
44 C44    -4.1134    -0.5287     0.0334 C
45 H45    12.3287    -1.5075    -0.0468 H
46 H46    11.9461     2.7839    -0.0209 H
47 H47     9.4927     2.5971     0.0878 H
48 H48    -4.1157     1.6453     0.0617 H
49 H49    -1.3046    -2.4650    -0.1350 H
50 H50    -3.7367    -2.6527    -0.0226 H
51 C51    -5.5593    -0.6727     0.1165 C
52 C52    -6.2916    -1.7626     0.5317 C
53 S53    -6.6343     0.6240    -0.3278 S
54 C54    -7.6931    -1.5516     0.4958 C
55 H55    -5.8358    -2.6826     0.8816 H
56 C56    -8.0479    -0.3014     0.0521 C
57 H57    -8.4149    -2.3033     0.7967 H
58 C58    -9.4092     0.2989    -0.1334 C
59 C59   -10.5401    -0.6491     0.2557 C
60 C60   -11.9007    -0.0429     0.0727 C
61 C61   -12.2521     1.1962    -0.3969 C
62 S62   -13.3196    -0.9543     0.4810 S
63 C63   -13.6615     1.4124    -0.4283 C
64 H64   -11.5294     1.9407    -0.7143 H
65 C65   -14.3677     0.3328     0.0187 C
66 H66   -14.1260     2.3317    -0.7690 H
67 H67    -9.5353     0.6011    -1.1823 H
68 H68   -10.4629    -1.5670    -0.3431 H
69 H69    -9.4878     1.2188     0.4622 H
70 H70   -10.4108    -0.9528     1.3036 H
71 H71    13.3691     0.7559    -0.0751 H
72 H72   -15.4406     0.2181     0.1038 H
@<TRIPOS>BOND
1 1 2 2
2 1 6 Ar
3 1 7 1
4 2 3 Ar
5 2 13 1
6 3 4 Ar
7 3 11 1
8 4 5 2
9 4 8 1
10 5 6 Ar
11 5 14 1
12 6 9 1
13 9 12 1
14 9 19 2
15 10 11 1
16 10 13 1
17 10 15 2
18 11 17 2
19 12 14 1
20 12 16 2
21 17 18 1
22 17 34 1
23 18 21 Ar
24 18 23 2
25 19 20 1
26 19 35 1
27 20 22 Ar
28 20 24 2
29 21 25 1
30 21 33 1
31 22 29 1
32 22 36 1
33 25 26 1
34 25 27 1
35 25 28 1
36 29 30 1
37 29 31 1
38 29 32 1
39 33 34 Ar
40 33 40 2
41 34 37 Ar
42 35 36 Ar
43 35 41 Ar
44 36 42 2
45 37 38 Ar
46 37 47 1
47 38 39 Ar
48 38 46 1
49 39 40 Ar
50 39 71 1
51 40 45 1
52 41 43 Ar
53 41 49 1
54 42 44 Ar
55 42 48 1
56 43 44 Ar
57 43 50 1
58 44 51 1
59 51 52 2
60 51 53 1
61 52 54 Ar
62 52 55 1
63 53 56 1
64 54 56 2
65 54 57 1
66 56 58 1
67 58 59 1
68 58 67 1
69 58 69 1
70 59 60 1
71 59 68 1
72 59 70 1
73 60 61 2
74 60 62 1
75 61 63 Ar
76 61 64 1
77 62 65 1
78 63 65 2
79 63 66 1
80 65 72 1
