# BDOPV_T
# Created by GaussView 6.1.1
#

#
#

@<TRIPOS>MOLECULE
Molecule Name
59 66
SMALL
NO_CHARGES


@<TRIPOS>ATOM
1 C1     0.8329     1.2765     0.0567 C
2 C2     2.2072     1.2497     0.1186 C
3 C3     3.0218     0.1013     0.0463 C
4 C4     2.3763    -1.1392    -0.1038 C
5 C5     1.0020    -1.1129    -0.1659 C
6 C6     0.1874     0.0360    -0.0931 C
7 H7     0.2866     2.2063     0.1061 H
8 H8     2.9231    -2.0686    -0.1534 H
9 C9    -1.1886    -0.4358    -0.1585 C
10 C10     4.2677     2.0678     0.2447 C
11 C11     4.3993     0.5730     0.1115 C
12 C12    -1.0597    -1.9275    -0.2927 C
13 O13     2.9438     2.3987     0.2470 O
14 O14     0.2644    -2.2608    -0.2946 O
15 O15     5.1001     2.9279     0.3625 O
16 O16    -1.8942    -2.7867    -0.4107 O
17 C17     5.6162    -0.0722     0.0781 C
18 C18     5.7311    -1.5847     0.0899 C
19 C19    -2.4078     0.2100    -0.1218 C
20 C20    -2.5251     1.7225    -0.1298 C
21 N21     7.0690    -1.8886     0.0551 N
22 N22    -3.8647     2.0252    -0.0885 N
23 O23     4.8505    -2.4279     0.1429 O
24 O24    -1.6470     2.5671    -0.1847 O
25 C25     7.5791    -3.2341     0.0638 C
26 H26     6.7237    -3.9106     0.1091 H
27 H27     8.1546    -3.4375    -0.8466 H
28 H28     8.2193    -3.4003     0.9378 H
29 C29    -4.3772     3.3701    -0.0933 C
30 H30    -5.0227     3.5357    -0.9633 H
31 H31    -4.9472     3.5725     0.8208 H
32 H32    -3.5229     4.0477    -0.1433 H
33 C33     7.8342    -0.7350     0.0132 C
34 C34     6.9966     0.4098     0.0353 C
35 C35    -3.7808    -0.2713    -0.0762 C
36 C36    -4.6250     0.8698    -0.0500 C
37 C37     7.6153     1.6663    -0.0231 C
38 C38     9.0060     1.7523    -0.0937 C
39 C39     9.7985     0.6061    -0.1040 C
40 C40     9.2155    -0.6626    -0.0518 C
41 C41    -4.4081    -1.5256    -0.0182 C
42 C42    -6.0009     0.7987     0.0267 C
43 C43    -5.7923    -1.6122     0.0543 C
44 C44    -6.6108    -0.4693     0.0805 C
45 H45     9.8253    -1.5609    -0.0652 H
46 H46     9.4719     2.7324    -0.1358 H
47 H47     7.0183     2.5653    -0.0035 H
48 H48    -6.5986     1.7045     0.0740 H
49 H49    -3.8164    -2.4280    -0.0516 H
50 H50    -6.2509    -2.5960     0.0609 H
51 C51    -8.0594    -0.6020     0.1662 C
52 C52    -8.7949    -1.6714     0.6340 C
53 S53    -9.1237     0.6749    -0.3464 S
54 C54   -10.1952    -1.4584     0.5837 C
55 H55    -8.3388    -2.5722     1.0302 H
56 C56   -10.5214    -0.2285     0.0756 C
57 H57   -10.9318    -2.1820     0.9156 H
58 H58    10.8806     0.6939    -0.1541 H
59 H59   -11.5064     0.1924    -0.0808 H
@<TRIPOS>BOND
1 1 2 2
2 1 6 Ar
3 1 7 1
4 2 3 Ar
5 2 13 1
6 3 4 Ar
7 3 11 1
8 4 5 2
9 4 8 1
10 5 6 Ar
11 5 14 1
12 6 9 1
13 9 12 1
14 9 19 2
15 10 11 1
16 10 13 1
17 10 15 2
18 11 17 2
19 12 14 1
20 12 16 2
21 17 18 1
22 17 34 1
23 18 21 Ar
24 18 23 2
25 19 20 1
26 19 35 1
27 20 22 Ar
28 20 24 2
29 21 25 1
30 21 33 1
31 22 29 1
32 22 36 1
33 25 26 1
34 25 27 1
35 25 28 1
36 29 30 1
37 29 31 1
38 29 32 1
39 33 34 Ar
40 33 40 2
41 34 37 Ar
42 35 36 Ar
43 35 41 Ar
44 36 42 2
45 37 38 Ar
46 37 47 1
47 38 39 Ar
48 38 46 1
49 39 40 Ar
50 39 58 1
51 40 45 1
52 41 43 Ar
53 41 49 1
54 42 44 Ar
55 42 48 1
56 43 44 Ar
57 43 50 1
58 44 51 1
59 51 52 2
60 51 53 1
61 52 54 Ar
62 52 55 1
63 53 56 1
64 54 56 2
65 54 57 1
66 56 59 1
