# BDOPV-2T
# Created by GaussView 6.1.1
#

#
#

@<TRIPOS>MOLECULE
Molecule Name
66 74
SMALL
NO_CHARGES


@<TRIPOS>ATOM
1 C1    -2.4822     1.2429    -0.0373 C
2 C2    -3.8545     1.2448     0.0604 C
3 C3    -4.6917     0.1103     0.0532 C
4 C4    -4.0729    -1.1474    -0.0640 C
5 C5    -2.7006    -1.1500    -0.1616 C
6 C6    -1.8634    -0.0147    -0.1552 C
7 H7    -1.9180     2.1633    -0.0382 H
8 H8    -4.6378    -2.0673    -0.0626 H
9 C9    -0.4990    -0.5146    -0.2360 C
10 C10    -5.8960     2.1064     0.2059 C
11 C11    -6.0579     0.6104     0.1333 C
12 C12    -0.6572    -2.0072    -0.3041 C
13 O13    -4.5667     2.4118     0.1625 O
14 O14    -1.9869    -2.3156    -0.2623 O
15 O15    -6.7095     2.9859     0.3121 O
16 O16     0.1589    -2.8864    -0.4049 O
17 C17    -7.2870    -0.0121     0.1537 C
18 C18    -7.4294    -1.5199     0.2301 C
19 C19     0.7326     0.1100    -0.2620 C
20 C20     0.8756     1.6175    -0.3477 C
21 N21    -8.7733    -1.7991     0.2378 N
22 N22     2.2214     1.8965    -0.3662 N
23 O23    -6.5637    -2.3773     0.2986 O
24 O24     0.0115     2.4755    -0.4132 O
25 C25    -9.3078    -3.1329     0.3140 C
26 H26    -8.4641    -3.8234     0.3673 H
27 H27    -9.9298    -3.2508     1.2087 H
28 H28    -9.9086    -3.3622    -0.5736 H
29 C29     2.7564     3.2299    -0.4490 C
30 H30     3.3625     3.4612     0.4345 H
31 H31     3.3725     3.3459    -1.3480 H
32 H32     1.9125     3.9205    -0.4987 H
33 C33    -9.5179    -0.6336     0.1654 C
34 C34    -8.6589     0.4947     0.1220 C
35 C35     2.0960    -0.3941    -0.2347 C
36 C36     2.9618     0.7307    -0.2887 C
37 C37    -9.2552     1.7594     0.0239 C
38 C38   -10.6453     1.8696    -0.0196 C
39 C39   -11.4591     0.7397     0.0355 C
40 C40   -10.8987    -0.5370     0.1278 C
41 C41     2.7032    -1.6564    -0.1335 C
42 C42     4.3375     0.6357    -0.2666 C
43 C43     4.0860    -1.7666    -0.0980 C
44 C44     4.9276    -0.6407    -0.1730 C
45 H45   -11.0937     2.8560    -0.0925 H
46 H46    -8.6412     2.6466    -0.0070 H
47 H47     4.9524     1.5281    -0.3414 H
48 H48     2.0941    -2.5464    -0.0833 H
49 H49     4.5238    -2.7538     0.0095 H
50 C50     6.3716    -0.7988    -0.1522 C
51 C51     7.1167    -1.9316    -0.4163 C
52 S52     7.4276     0.5290     0.2385 S
53 C53     8.5088    -1.7288    -0.3251 C
54 H54     6.6706    -2.8765    -0.7066 H
55 C55     8.8530    -0.4350     0.0152 C
56 H56     9.2449    -2.4993    -0.5302 H
57 C57    10.1673     0.1356     0.1954 C
58 C58    10.5421     1.4633     0.1884 C
59 S59    11.5513    -0.8818     0.4662 S
60 C60    11.9328     1.6531     0.3904 C
61 H61     9.8393     2.2732     0.0206 H
62 C62    12.6078     0.4723     0.5483 C
63 H63    12.4159     2.6239     0.4095 H
64 H64   -11.5252    -1.4230     0.1651 H
65 H65   -12.5402     0.8464     0.0057 H
66 H66    13.6672     0.3218     0.7113 H
@<TRIPOS>BOND
1 1 2 2
2 1 6 Ar
3 1 7 1
4 2 3 Ar
5 2 13 1
6 3 4 Ar
7 3 11 1
8 4 5 2
9 4 8 1
10 5 6 Ar
11 5 14 1
12 6 9 1
13 9 12 1
14 9 19 2
15 10 11 1
16 10 13 1
17 10 15 2
18 11 17 2
19 12 14 1
20 12 16 2
21 17 18 1
22 17 34 1
23 18 21 Ar
24 18 23 2
25 19 20 1
26 19 35 1
27 20 22 Ar
28 20 24 2
29 21 25 1
30 21 33 1
31 22 29 1
32 22 36 1
33 25 26 1
34 25 27 1
35 25 28 1
36 29 30 1
37 29 31 1
38 29 32 1
39 33 34 Ar
40 33 40 2
41 34 37 Ar
42 35 36 Ar
43 35 41 Ar
44 36 42 2
45 37 38 Ar
46 37 46 1
47 38 39 Ar
48 38 45 1
49 39 40 Ar
50 39 65 1
51 40 64 1
52 41 43 Ar
53 41 48 1
54 42 44 Ar
55 42 47 1
56 43 44 Ar
57 43 49 1
58 44 50 1
59 50 51 2
60 50 52 1
61 51 53 Ar
62 51 54 1
63 52 55 1
64 53 55 2
65 53 56 1
66 55 57 Ar
67 57 58 2
68 57 59 1
69 58 60 Ar
70 58 61 1
71 59 62 1
72 60 62 2
73 60 63 1
74 62 66 1
