# BDPPV
# Created by GaussView 6.1.1
#

#
#

@<TRIPOS>MOLECULE
Molecule Name
56 62
SMALL
NO_CHARGES


@<TRIPOS>ATOM
1 C1     0.2460     1.2645    -0.1484 C
2 C2    -1.1294     1.2639    -0.1106 C
3 C3    -1.9575     0.1258    -0.1464 C
4 C4    -1.3379    -1.1338    -0.1858 C
5 C5     0.0376    -1.1340    -0.2216 C
6 C6     0.8643     0.0061    -0.2254 C
7 H7     0.8115     2.1849    -0.1297 H
8 H8    -1.9037    -2.0540    -0.1974 H
9 C9     2.2335    -0.4830    -0.2041 C
10 C10    -3.1830     2.1003     0.0591 C
11 C11    -3.3244     0.6109    -0.0242 C
12 C12     2.0980    -1.9720    -0.2127 C
13 O13    -1.8579     2.4238    -0.0132 O
14 O14     0.7698    -2.2952    -0.2384 O
15 O15    -4.0084     2.9769     0.1212 O
16 O16     2.9269    -2.8475    -0.2527 O
17 C17    -4.5384    -0.0308    -0.0116 C
18 C18    -4.7010    -1.4806    -0.4316 C
19 C19     3.4485     0.1609    -0.2072 C
20 C20     3.5931     1.6326    -0.5536 C
21 N21    -6.0305    -1.7791    -0.3336 N
22 N22     4.9264     1.9286    -0.4942 N
23 O23    -3.8464    -2.2558    -0.8388 O
24 O24     2.7220     2.4254    -0.8825 O
25 C25    -6.6026    -3.0611    -0.6617 C
26 H26    -5.7962    -3.7174    -0.9927 H
27 H27    -7.0886    -3.4978     0.2172 H
28 H28    -7.3379    -2.9558    -1.4663 H
29 C29     5.4843     3.2280    -0.7754 C
30 H30     6.0013     3.6202     0.1068 H
31 H31     6.1900     3.1668    -1.6104 H
32 H32     4.6652     3.8976    -1.0422 H
33 C33    -6.7479    -0.6848     0.1264 C
34 C34    -5.8823     0.4201     0.3247 C
35 C35     4.7990    -0.3031     0.0443 C
36 C36     5.6586     0.8107    -0.1248 C
37 C37    -6.4288     1.5982     0.8504 C
38 C38    -7.7933     1.6589     1.1320 C
39 C39    -8.6234     0.5607     0.8972 C
40 C40    -8.1061    -0.6361     0.3934 C
41 C41     5.3743    -1.5058     0.4849 C
42 C42     7.0225     0.7478     0.0867 C
43 C43     6.7416    -1.5805     0.7091 C
44 C44     7.5859    -0.4715     0.5059 C
45 C45     9.0347    -0.5192     0.7196 C
46 C46     9.7537    -1.5855     1.1012 C
47 H47    -8.7443    -1.4984     0.2259 H
48 H48    -9.6864     0.6299     1.1141 H
49 H49    -8.2123     2.5769     1.5345 H
50 H50    -5.8029     2.4604     1.0295 H
51 H51     7.6535     1.6206    -0.0568 H
52 H52     4.7591    -2.3802     0.6432 H
53 H53     7.1596    -2.5238     1.0470 H
54 H54     9.5543     0.4224     0.5407 H
55 H55    10.8301    -1.5052     1.2298 H
56 H56     9.3105    -2.5596     1.2962 H
@<TRIPOS>BOND
1 1 2 2
2 1 6 Ar
3 1 7 1
4 2 3 Ar
5 2 13 1
6 3 4 Ar
7 3 11 1
8 4 5 2
9 4 8 1
10 5 6 Ar
11 5 14 1
12 6 9 1
13 9 12 1
14 9 19 2
15 10 11 1
16 10 13 1
17 10 15 2
18 11 17 2
19 12 14 1
20 12 16 2
21 17 18 1
22 17 34 1
23 18 21 Ar
24 18 23 2
25 19 20 1
26 19 35 1
27 20 22 Ar
28 20 24 2
29 21 25 1
30 21 33 1
31 22 29 1
32 22 36 1
33 25 26 1
34 25 27 1
35 25 28 1
36 29 30 1
37 29 31 1
38 29 32 1
39 33 34 Ar
40 33 40 2
41 34 37 Ar
42 35 36 Ar
43 35 41 Ar
44 36 42 2
45 37 38 Ar
46 37 50 1
47 38 39 Ar
48 38 49 1
49 39 40 Ar
50 39 48 1
51 40 47 1
52 41 43 Ar
53 41 52 1
54 42 44 Ar
55 42 51 1
56 43 44 Ar
57 43 53 1
58 44 45 1
59 45 46 2
60 45 54 1
61 46 55 1
62 46 56 1
