# ClBDPPV
# Created by GaussView 6.1.1
#

#
#

@<TRIPOS>MOLECULE
Molecule Name
56 62
SMALL
NO_CHARGES


@<TRIPOS>ATOM
1 C1     0.1751     1.2816    -0.2897 C
2 C2    -1.1942     1.1442    -0.2777 C
3 C3    -1.9041    -0.0711    -0.2952 C
4 C4    -1.1605    -1.2624    -0.2858 C
5 C5     0.2089    -1.1253    -0.2934 C
6 C6     0.9183     0.0905    -0.3155 C
7 H7     0.6444     2.2549    -0.2875 H
8 H8    -1.6296    -2.2357    -0.2818 H
9 C9     2.3300    -0.2605    -0.2616 C
10 C10    -3.3199     1.7792    -0.1717 C
11 C11    -3.3154     0.2794    -0.2151 C
12 C12     2.3368    -1.7584    -0.2239 C
13 O13    -2.0339     2.2293    -0.2282 O
14 O14     1.0499    -2.2099    -0.2625 O
15 O15    -4.2294     2.5701    -0.1476 O
16 O16     3.2478    -2.5485    -0.2138 O
17 C17    -4.4624    -0.4756    -0.2081 C
18 C18    -4.4765    -1.9489    -0.5747 C
19 C19     3.4790     0.4936    -0.2723 C
20 C20     3.4907     1.9711    -0.6253 C
21 N21    -5.7750    -2.3698    -0.5036 N
22 N22     4.7925     2.3871    -0.5806 N
23 O23    -3.5401    -2.6538    -0.9239 O
24 O24     2.5490     2.6829    -0.9433 O
25 C25    -6.2130    -3.7124    -0.7995 C
26 H26    -5.3382    -4.2983    -1.0858 H
27 H27    -6.6797    -4.1644     0.0822 H
28 H28    -6.9313    -3.7051    -1.6260 H
29 C29     5.2280     3.7316    -0.8711 C
30 H30     5.7085     4.1756     0.0072 H
31 H31     5.9340     3.7302    -1.7082 H
32 H32     4.3500     4.3212    -1.1395 H
33 C33    -6.6035    -1.3342    -0.1060 C
34 C34    -5.8554    -0.1455     0.0745 C
35 C35     4.8731     0.1588    -0.0262 C
36 C36     5.6241     1.3433    -0.2120 C
37 C37    -6.5213     0.9959     0.5351 C
38 C38    -7.8911     0.9195     0.7688 C
39 C39    -8.6205    -0.2496     0.5599 C
40 C40    -7.9691    -1.4023     0.1194 C
41 C41     5.5570    -0.9750     0.4202 C
42 C42     6.9874     1.3975    -0.0142 C
43 C43     6.9340    -0.9229     0.6174 C
44 C44     7.6931     0.2426     0.3849 C
45 C45     9.1448     0.4051     0.5349 C
46 C46    10.1185    -0.5079     0.4034 C
47 H47    -9.6907    -0.2682     0.7439 H
48 H48    -5.9921     1.9232     0.6997 H
49 H49     5.0302    -1.8983     0.6135 H
50 H50     9.4435     1.4382     0.7137 H
51 H51    11.1566    -0.1988     0.5019 H
52 H52     9.9404    -1.5527     0.1721 H
53 H53    -8.5231    -2.3233    -0.0335 H
54 H54     7.5351     2.3225    -0.1704 H
55 Cl55    -8.7241     2.3464     1.3383 Cl
56 Cl56     7.6665    -2.3873     1.2302 Cl
@<TRIPOS>BOND
1 1 2 2
2 1 6 Ar
3 1 7 1
4 2 3 Ar
5 2 13 1
6 3 4 Ar
7 3 11 1
8 4 5 2
9 4 8 1
10 5 6 Ar
11 5 14 1
12 6 9 1
13 9 12 1
14 9 19 2
15 10 11 1
16 10 13 1
17 10 15 2
18 11 17 2
19 12 14 1
20 12 16 2
21 17 18 1
22 17 34 1
23 18 21 Ar
24 18 23 2
25 19 20 1
26 19 35 1
27 20 22 Ar
28 20 24 2
29 21 25 1
30 21 33 1
31 22 29 1
32 22 36 1
33 25 26 1
34 25 27 1
35 25 28 1
36 29 30 1
37 29 31 1
38 29 32 1
39 33 34 Ar
40 33 40 2
41 34 37 Ar
42 35 36 Ar
43 35 41 Ar
44 36 42 2
45 37 38 Ar
46 37 48 1
47 38 39 Ar
48 38 55 1
49 39 40 Ar
50 39 47 1
51 40 53 1
52 41 43 Ar
53 41 49 1
54 42 44 Ar
55 42 54 1
56 43 44 Ar
57 43 56 1
58 44 45 1
59 45 46 2
60 45 50 1
61 46 51 1
62 46 52 1
