# CNg4T2-CNT2
# Created by GaussView 6.1.1
#

#
#

@<TRIPOS>MOLECULE
Molecule Name
56 59
SMALL
NO_CHARGES


@<TRIPOS>ATOM
1 C1     3.5390    -0.0037    -0.0879 C
2 C2     4.0911    -1.2281     0.2507 C
3 C3     5.5257    -1.2026     0.2767 C
4 C4     6.0182     0.0405    -0.0571 C
5 S5     4.7886     1.1712    -0.3879 S
6 C6     2.1412     0.3171    -0.1963 C
7 C7     1.5919     1.5505    -0.4880 C
8 S8     0.8811    -0.8628     0.0267 S
9 C9     0.1659     1.5368    -0.5721 C
10 C10    -0.3708     0.2823    -0.3176 C
11 C11    -1.7458    -0.1562    -0.3205 C
12 C12    -2.2029    -1.4332    -0.5627 C
13 S13    -3.0645     0.9083     0.0587 S
14 C14    -3.6092    -1.5522    -0.4385 C
15 C15    -4.2343    -0.3534    -0.0972 C
16 C16    -0.5836     2.6793    -0.9551 C
17 N17    -1.1733     3.6289    -1.2762 N
18 O18     2.3597     2.6309    -0.7565 O
19 O19     3.2797    -2.2562     0.5593 O
20 C20     2.3099     3.6963     0.2070 C
21 H21     1.2716     3.9561     0.4381 H
22 H22     2.8143     3.3804     1.1285 H
23 C23     3.6880    -3.5966     0.2580 C
24 H24     4.1705    -3.6303    -0.7255 H
25 H25     4.3896    -3.9593     1.0146 H
26 C26     2.4294    -4.4409     0.2661 C
27 H27     1.9182    -4.3370     1.2376 H
28 H28     1.7364    -4.0965    -0.5196 H
29 C29     1.7449    -6.6651     0.0390 C
30 H30     2.1562    -7.6604    -0.1406 H
31 H31     1.2188    -6.6604     1.0057 H
32 H32     1.0251    -6.4229    -0.7580 H
33 C33     3.0221     4.8795    -0.4128 C
34 H34     2.4749     5.2174    -1.3074 H
35 H35     4.0374     4.5846    -0.7269 H
36 O36     2.8268    -5.7652     0.0422 O
37 H37    -1.5614    -2.2636    -0.8355 H
38 C38    -5.6448    -0.0875     0.0834 C
39 C39    -6.2584     0.8005     0.9647 C
40 S40    -6.8404    -0.8872    -0.8774 S
41 C41    -7.6789     0.8119     0.8500 C
42 C42    -8.1255    -0.0545    -0.1051 C
43 H43    -8.3201     1.4327     1.4644 H
44 C44    -4.2792    -2.7930    -0.6271 C
45 N45    -4.7882    -3.8257    -0.7881 N
46 C46    -5.5690     1.5908     1.9255 C
47 N47    -5.0401     2.2465     2.7268 N
48 C48     6.3868    -2.2746     0.6378 C
49 N49     7.1184    -3.1265     0.9387 N
50 H50     7.0608     0.3260    -0.1086 H
51 H51    -9.1489    -0.2555    -0.3949 H
52 O52     3.0682     5.8843     0.5641 O
53 C53     3.6507     7.0747     0.0930 C
54 H54     3.6382     7.7876     0.9201 H
55 H55     4.6916     6.9115    -0.2271 H
56 H56     3.0811     7.4913    -0.7515 H
@<TRIPOS>BOND
1 1 2 2
2 1 5 1
3 1 6 Ar
4 2 3 Ar
5 2 19 1
6 3 4 2
7 3 48 Ar
8 4 5 1
9 4 50 1
10 6 7 2
11 6 8 1
12 7 9 Ar
13 7 18 1
14 8 10 1
15 9 10 Ar
16 9 16 Ar
17 10 11 Ar
18 11 12 2
19 11 13 1
20 12 14 Ar
21 12 37 1
22 13 15 1
23 14 15 Ar
24 14 44 Ar
25 15 38 Ar
26 16 17 3
27 18 20 1
28 19 23 1
29 20 21 1
30 20 22 1
31 20 33 1
32 23 24 1
33 23 25 1
34 23 26 1
35 26 27 1
36 26 28 1
37 26 36 1
38 29 30 1
39 29 31 1
40 29 32 1
41 29 36 1
42 33 34 1
43 33 35 1
44 33 52 1
45 38 39 Ar
46 38 40 1
47 39 41 Ar
48 39 46 Ar
49 40 42 1
50 41 42 2
51 41 43 1
52 42 51 1
53 44 45 3
54 46 47 3
55 48 49 3
56 52 53 1
57 53 54 1
58 53 55 1
59 53 56 1
