# CNg4T2-2FT
# Created by GaussView 6.1.1
#

#
#

@<TRIPOS>MOLECULE
Molecule Name
47 49
SMALL
NO_CHARGES


@<TRIPOS>ATOM
1 C1     0.9642     1.8480     0.0731 C
2 C2     0.0880     2.8869    -0.1720 C
3 C3     0.7196     4.1736    -0.1406 C
4 C4     2.0614     4.0791     0.1443 C
5 S5     2.5684     2.4623     0.3645 S
6 C6     0.6591     0.4413     0.0875 C
7 C7     1.5319    -0.6000     0.3161 C
8 S8    -0.9535    -0.1597    -0.1671 S
9 C9     0.9018    -1.8825     0.3130 C
10 C10    -0.4640    -1.8113     0.0570 C
11 C11    -1.4294    -2.8760    -0.0333 C
12 C12    -2.7828    -2.7617    -0.2662 C
13 S13    -1.0291    -4.5662     0.1401 S
14 C14    -3.4727    -3.9934    -0.3039 C
15 C15    -2.6569    -5.0639    -0.1010 C
16 C16     1.6255    -3.0710     0.5832 C
17 N17     2.2464    -4.0285     0.8100 N
18 O18     2.8401    -0.3977     0.5969 O
19 O19    -1.2084     2.6644    -0.4854 O
20 C20     3.7717    -0.8157    -0.4135 C
21 H21     3.5709    -1.8484    -0.7170 H
22 H22     3.6823    -0.1605    -1.2888 H
23 C23    -2.1824     3.1510     0.4518 C
24 H24    -2.0712     2.6193     1.4048 H
25 H25    -2.0497     4.2246     0.6208 H
26 C26    -3.5423     2.8782    -0.1551 C
27 H27    -3.6463     3.4325    -1.1019 H
28 H28    -3.6469     1.8035    -0.3768 H
29 C29    -5.8170     3.1188     0.3286 C
30 H30    -6.4800     3.4689     1.1228 H
31 H31    -6.0066     3.7043    -0.5840 H
32 H32    -6.0302     2.0589     0.1209 H
33 C33     5.1532    -0.7072     0.1954 C
34 H34     5.2410    -1.4016     1.0463 H
35 H35     5.3180     0.3157     0.5732 H
36 O36    -4.4978     3.2951     0.7834 O
37 F37    -3.4135    -1.5981    -0.4450 F
38 F38    -4.7870    -4.0564    -0.5183 F
39 C39     0.0536     5.4004    -0.4070 C
40 N40    -0.4937     6.4017    -0.6287 N
41 H41     2.7686     4.8942     0.2258 H
42 H42    -2.9272    -6.1104    -0.0785 H
43 O43     6.0716    -1.0252    -0.8160 O
44 C44     7.4029    -1.0182    -0.3627 C
45 H45     8.0342    -1.2759    -1.2158 H
46 H46     7.6925    -0.0246     0.0133 H
47 H47     7.5567    -1.7585     0.4371 H
@<TRIPOS>BOND
1 1 2 2
2 1 5 1
3 1 6 Ar
4 2 3 Ar
5 2 19 1
6 3 4 2
7 3 39 Ar
8 4 5 1
9 4 41 1
10 6 7 2
11 6 8 1
12 7 9 Ar
13 7 18 1
14 8 10 1
15 9 10 Ar
16 9 16 Ar
17 10 11 Ar
18 11 12 2
19 11 13 1
20 12 14 Ar
21 12 37 1
22 13 15 1
23 14 15 2
24 14 38 1
25 15 42 1
26 16 17 3
27 18 20 1
28 19 23 1
29 20 21 1
30 20 22 1
31 20 33 1
32 23 24 1
33 23 25 1
34 23 26 1
35 26 27 1
36 26 28 1
37 26 36 1
38 29 30 1
39 29 31 1
40 29 32 1
41 29 36 1
42 33 34 1
43 33 35 1
44 33 43 1
45 39 40 3
46 43 44 1
47 44 45 1
48 44 46 1
49 44 47 1
