# DDBDT
# Created by GaussView 6.1.1
#

#
#

@<TRIPOS>MOLECULE
Molecule Name
48 54
SMALL
NO_CHARGES


@<TRIPOS>ATOM
1 C1    -1.3550    -1.3932    -0.0554 C
2 C2    -2.7038    -1.3695    -0.2347 C
3 C3    -1.4215     1.0475     0.3519 C
4 C4    -0.6661    -0.1930     0.2598 C
5 C5    -2.8004     1.0897     0.1768 C
6 C6    -3.4769    -0.1660    -0.1191 C
7 C7    -4.8594    -0.1309    -0.2848 C
8 C8    -5.6118     1.1228    -0.1772 C
9 C9    -4.9156     2.3358     0.1049 C
10 C10    -3.5711     2.3092     0.2730 C
11 H11    -0.8099    -2.3247    -0.1270 H
12 H12    -3.2022    -2.2986    -0.4714 H
13 H13    -5.4713     3.2652     0.1829 H
14 H14    -3.0632     3.2378     0.4879 H
15 C15    -7.0728    -0.5703    -0.6320 C
16 N16    -5.7628    -1.1217    -0.5571 N
17 C17    -5.5759    -2.5407    -0.7443 C
18 H18    -4.9531    -2.7514    -1.6197 H
19 H19    -5.1406    -3.0071     0.1452 H
20 H20    -6.5704    -2.9608    -0.9125 H
21 N21    -0.5238     2.0606     0.6138 N
22 C22     0.6853     0.0906     0.4489 C
23 C23     0.7795     1.5465     0.6725 C
24 O24     1.7596     2.2365     0.9010 O
25 C25     5.9186    -0.8234    -0.2454 C
26 C26     5.1945    -1.9609     0.2382 C
27 C27     3.8713    -1.7677     0.4414 C
28 C28     3.1628    -0.5222     0.2112 C
29 C29     3.8865     0.6116    -0.2784 C
30 C30     5.2116     0.4264    -0.4879 C
31 H31     3.4036     1.5667    -0.4344 H
32 C32     1.7479    -2.1890     0.9261 C
33 O33     0.8189    -2.8462     1.3105 O
34 C34     1.8245    -0.7702     0.4832 C
35 C35    -0.7337     3.4723     0.8336 C
36 H36    -1.1556     3.9584    -0.0520 H
37 H37    -1.3763     3.6496     1.7017 H
38 H38     0.2511     3.9008     1.0327 H
39 O39     3.0193    -2.7343     0.8755 O
40 H40     5.6744    -2.9158     0.4211 H
41 C41     7.2222    -0.6008    -0.5701 C
42 C42    -6.9315     0.8602    -0.3861 C
43 C43     7.3471     0.7852    -1.0193 C
44 O44     6.0711     1.3683    -0.9458 O
45 O45     8.2947     1.4171    -1.4008 O
46 O46    -8.0658    -1.2363    -0.8605 O
47 H47     8.0651    -1.2770    -0.5293 H
48 H48    -7.7680     1.5455    -0.3822 H
@<TRIPOS>BOND
1 1 2 2
2 1 4 Ar
3 1 11 1
4 2 6 Ar
5 2 12 1
6 3 4 1
7 3 5 Ar
8 3 21 Ar
9 4 22 Ar
10 5 6 1
11 5 10 Ar
12 6 7 Ar
13 7 8 1
14 7 16 Ar
15 8 9 Ar
16 8 42 2
17 9 10 2
18 9 13 1
19 10 14 1
20 15 16 1
21 15 42 1
22 15 46 2
23 16 17 1
24 17 18 1
25 17 19 1
26 17 20 1
27 21 23 1
28 21 35 1
29 22 23 1
30 22 34 Ar
31 23 24 2
32 25 26 Ar
33 25 30 1
34 25 41 2
35 26 27 2
36 26 40 1
37 27 28 1
38 27 39 1
39 28 29 Ar
40 28 34 Ar
41 29 30 2
42 29 31 1
43 30 44 1
44 32 33 2
45 32 34 1
46 32 39 1
47 35 36 1
48 35 37 1
49 35 38 1
50 41 43 1
51 41 47 1
52 42 48 1
53 43 44 1
54 43 45 2
