# DDNDT
# Created by GaussView 6.1.1
#

#
#

@<TRIPOS>MOLECULE
Molecule Name
54 61
SMALL
NO_CHARGES


@<TRIPOS>ATOM
1 C1     2.1979    -1.2438    -0.0331 C
2 C2     3.5427    -1.3627    -0.2112 C
3 C3     2.5072     1.1876     0.2817 C
4 C4     1.6328     0.0296     0.2343 C
5 C5     3.8839     1.0870     0.1054 C
6 C6     4.4318    -0.2399    -0.1412 C
7 C7     5.8116    -0.3479    -0.3077 C
8 C8     6.6840     0.8266    -0.2505 C
9 C9     6.1121     2.1124    -0.0172 C
10 C10     4.7720     2.2264     0.1525 C
11 H11     1.5622    -2.1179    -0.0687 H
12 H12     3.9446    -2.3458    -0.4111 H
13 H13     6.7572     2.9849     0.0232 H
14 H14     4.3603     3.2090     0.3296 H
15 C15     7.9692    -1.0191    -0.6376 C
16 N16     6.6113    -1.4339    -0.5406 N
17 O17     8.8904    -1.7905    -0.8390 O
18 C18     6.2836    -2.8338    -0.6674 C
19 H19     5.8062    -3.2162     0.2404 H
20 H20     5.6404    -3.0188    -1.5338 H
21 H21     7.2311    -3.3573    -0.8160 H
22 N22     1.7172     2.2982     0.5029 N
23 C23     0.3120     0.4555     0.4047 C
24 C24     0.3700     1.9237     0.5756 C
25 O25    -0.5330     2.7186     0.7799 O
26 C26     7.9715     0.4258    -0.4492 C
27 C27    -6.5427    -2.2598     0.3565 C
28 C28    -5.1970    -2.2513     0.5492 C
29 C29    -6.3757     0.0961    -0.3946 C
30 C30    -7.1799    -1.0702    -0.1277 C
31 C31    -5.0149     0.1419    -0.2110 C
32 C32    -4.4074    -1.0767     0.2794 C
33 C33    -3.0476    -1.0297     0.4629 C
34 C34    -2.2285     0.1136     0.2113 C
35 C35    -2.8613     1.2985    -0.2807 C
36 C36    -4.2094     1.2990    -0.4820 C
37 H37    -7.1353    -3.1456     0.5624 H
38 H38    -4.6832    -3.1349     0.9157 H
39 H39    -2.2700     2.1862    -0.4610 H
40 H40    -4.7076     2.1898    -0.8525 H
41 C41    -0.9780    -1.6869     0.9133 C
42 O42    -0.1321    -2.4546     1.2891 O
43 C43    -8.4711    -0.7285    -0.4305 C
44 C44    -8.4797     0.6508    -0.8885 C
45 C45    -0.9069    -0.2760     0.4659 C
46 C46     2.0720     3.6866     0.6800 C
47 H47     2.7359     3.8218     1.5396 H
48 H48     2.5350     4.1019    -0.2209 H
49 H49     1.1377     4.2192     0.8710 H
50 O50    -9.3572     1.3826    -1.2605 O
51 O51    -7.1354     1.1110    -0.8432 O
52 O52    -2.3128    -2.0840     0.8898 O
53 H53    -9.3701    -1.3255    -0.3660 H
54 H54     8.8716     1.0247    -0.4728 H
@<TRIPOS>BOND
1 1 2 2
2 1 4 Ar
3 1 11 1
4 2 6 Ar
5 2 12 1
6 3 4 1
7 3 5 Ar
8 3 22 Ar
9 4 23 Ar
10 5 6 1
11 5 10 Ar
12 6 7 Ar
13 7 8 1
14 7 16 Ar
15 8 9 Ar
16 8 26 2
17 9 10 2
18 9 13 1
19 10 14 1
20 15 16 1
21 15 17 2
22 15 26 1
23 16 18 1
24 18 19 1
25 18 20 1
26 18 21 1
27 22 24 1
28 22 46 1
29 23 24 1
30 23 45 Ar
31 24 25 2
32 26 54 1
33 27 28 2
34 27 30 Ar
35 27 37 1
36 28 32 Ar
37 28 38 1
38 29 30 Ar
39 29 31 2
40 29 51 1
41 30 43 2
42 31 32 Ar
43 31 36 Ar
44 32 33 2
45 33 34 Ar
46 33 52 1
47 34 35 Ar
48 34 45 Ar
49 35 36 2
50 35 39 1
51 36 40 1
52 41 42 2
53 41 45 1
54 41 52 1
55 43 44 1
56 43 53 1
57 44 50 2
58 44 51 1
59 46 47 1
60 46 48 1
61 46 49 1
