# f-BSeI2TEG-FT
# Created by GaussView 6.1.1
#

#
#

@<TRIPOS>MOLECULE
Molecule Name
75 81
SMALL
NO_CHARGES


@<TRIPOS>ATOM
1 C1     5.8367    -0.8022    -0.1517 C
2 C2     5.7594     0.6657     0.0159 C
3 C3     4.6597     1.5069     0.0923 C
4 C4     3.2819     1.1539     0.0274 C
5 C5     3.3737    -1.4576    -0.0141 C
6 C6     2.7509    -0.1300    -0.0130 C
7 N7     4.7511    -1.6897    -0.0941 N
8 O8     2.5963    -2.4109     0.0224 O
9 O9     6.9475    -1.2907    -0.3242 O
10 C10     5.1306    -3.1278    -0.0733 C
11 H11     4.1818    -3.6581    -0.1381 H
12 C12     7.0165     1.3465     0.0956 C
13 C13     1.3323    -0.0725    -0.0382 C
14 S14     2.0486     2.3954     0.0126 S
15 C15     6.9456     2.6951     0.2383 C
16 C16     0.8056     1.2061    -0.0365 C
17 S17     0.0898    -1.2634    -0.0744 S
18 C18    -1.1443    -0.0219    -0.0934 C
19 C19    -0.6116     1.2628    -0.0771 C
20 C20    -2.5216    -0.3701    -0.1069 C
21 C21    -3.6202     0.4755    -0.1908 C
22 C22    -3.7031     1.9530    -0.2923 C
23 C23    -1.2384     2.5854    -0.0782 C
24 N24    -2.6035     2.8323    -0.1853 N
25 C25    -2.9782     4.2704    -0.1200 C
26 H26    -4.0359     4.2861    -0.3770 H
27 O27    -0.4735     3.5485    -0.0030 O
28 O28    -4.8172     2.4315    -0.4620 O
29 C29    -4.8263    -1.5696    -0.1070 C
30 C30    -4.8706    -0.2027    -0.1916 C
31 C31    -5.9377    -2.4815    -0.0868 C
32 C32    -5.9226    -3.8523    -0.0058 C
33 S33    -7.5897    -1.9358    -0.1691 S
34 C34    -7.2061    -4.4490    -0.0097 C
35 C35    -8.2147    -3.5393    -0.0938 C
36 F36    -4.8007    -4.5752     0.0708 F
37 F37    -7.3683    -5.7701     0.0630 F
38 H38     7.9486     0.7971     0.0429 H
39 H39    -5.7949     0.3600    -0.2594 H
40 C40    -2.8063     4.8208     1.2987 C
41 H41    -3.1047     5.8815     1.2731 H
42 H42    -1.7594     4.7631     1.6055 H
43 C43    -2.2973     5.1490    -1.1690 C
44 H44    -1.3943     5.6339    -0.7743 H
45 H45    -2.0000     4.5478    -2.0433 H
46 C46     5.8140    -3.5062     1.2437 C
47 H47     6.0477    -4.5820     1.1878 H
48 H48     6.7503    -2.9557     1.3601 H
49 C49     5.9320    -3.5836    -1.2928 C
50 H50     5.7413    -2.9197    -2.1511 H
51 H51     7.0129    -3.5742    -1.0979 H
52 C52     6.2413    -5.4876    -2.6182 C
53 H53     7.3104    -5.5563    -2.3623 H
54 H54     5.8434    -6.4941    -2.7680 H
55 H55     6.1417    -4.9191    -3.5565 H
56 C56     3.9991    -4.1411     2.6268 C
57 H57     3.2203    -4.1005     1.8539 H
58 H58     4.3900    -5.1681     2.6943 H
59 H59     3.5568    -3.8659     3.5875 H
60 C60    -4.9207     4.4262     2.2900 C
61 H61    -5.3458     3.8991     3.1478 H
62 H62    -5.0787     5.5078     2.4210 H
63 H63    -5.4355     4.0932     1.3787 H
64 C64    -2.7169     7.0771    -2.4275 C
65 H65    -1.8711     7.6194    -1.9760 H
66 H66    -2.3732     6.6088    -3.3635 H
67 H67    -3.5157     7.7864    -2.6569 H
68 O68     5.5010    -4.8977    -1.5807 O
69 O69     5.0403    -3.2207     2.3824 O
70 O70    -3.5445     4.1170     2.2668 O
71 O71    -3.2482     6.1243    -1.5429 O
72 Se72     5.1901     3.2890     0.2876 Se
73 Se73    -3.0516    -2.1623    -0.0143 Se
74 H74    -9.2789    -3.7274    -0.1152 H
75 H75     7.7702     3.3906     0.3239 H
@<TRIPOS>BOND
1 1 2 1
2 1 7 1
3 1 9 2
4 2 3 Ar
5 2 12 Ar
6 3 4 Ar
7 3 72 1
8 4 6 Ar
9 4 14 1
10 5 6 1
11 5 7 1
12 5 8 2
13 6 13 Ar
14 7 10 1
15 10 11 1
16 10 46 1
17 10 49 1
18 12 15 2
19 12 38 1
20 13 16 2
21 13 17 1
22 14 16 1
23 15 72 1
24 15 75 1
25 16 19 Ar
26 17 18 1
27 18 19 Ar
28 18 20 Ar
29 19 23 1
30 20 21 Ar
31 20 73 1
32 21 22 1
33 21 30 Ar
34 22 24 1
35 22 28 2
36 23 24 1
37 23 27 2
38 24 25 1
39 25 26 1
40 25 40 1
41 25 43 1
42 29 30 2
43 29 31 Ar
44 29 73 1
45 30 39 1
46 31 32 2
47 31 33 1
48 32 34 Ar
49 32 36 1
50 33 35 1
51 34 35 2
52 34 37 1
53 35 74 1
54 40 41 1
55 40 42 1
56 40 70 1
57 43 44 1
58 43 45 1
59 43 71 1
60 46 47 1
61 46 48 1
62 46 69 1
63 49 50 1
64 49 51 1
65 49 68 1
66 52 53 1
67 52 54 1
68 52 55 1
69 52 68 1
70 56 57 1
71 56 58 1
72 56 59 1
73 56 69 1
74 60 61 1
75 60 62 1
76 60 63 1
77 60 70 1
78 64 65 1
79 64 66 1
80 64 67 1
81 64 71 1
