# f-BSeI2-FT
# Created by GaussView 6.1.1
#

#
#

@<TRIPOS>MOLECULE
Molecule Name
47 53
SMALL
NO_CHARGES


@<TRIPOS>ATOM
1 C1     5.6109    -2.5970    -0.1426 C
2 C2     6.0174    -1.1781    -0.0573 C
3 C3     5.2468    -0.0265     0.0158 C
4 C4     3.8261     0.0848     0.0092 C
5 C5     3.0609    -2.4121     0.0051 C
6 C6     2.9027    -0.9554    -0.0013 C
7 N7     4.2924    -3.0660    -0.0076 N
8 O8     2.0244    -3.0750     0.0227 O
9 O9     6.4853    -3.4397    -0.2985 O
10 C10     4.2189    -4.5334     0.0150 C
11 H11     4.9423    -4.9132     0.7371 H
12 H12     3.2057    -4.8182     0.2836 H
13 H13     4.4742    -4.9366    -0.9686 H
14 C14     7.4280    -0.9358    -0.0559 C
15 C15     1.5806    -0.4393    -0.0032 C
16 S16     3.0633     1.6605     0.0081 S
17 C17     7.7987     0.3684     0.0233 C
18 C18     1.4996     0.9410     0.0001 C
19 S19     0.0179    -1.1605    -0.0056 S
20 C20    -0.7463     0.4155    -0.0025 C
21 C21     0.1779     1.4573    -0.0015 C
22 C22    -2.1639     0.5254    -0.0033 C
23 C23    -2.9372     1.6781    -0.0559 C
24 C24    -2.5327     3.1008    -0.1073 C
25 C25     0.0196     2.9129     0.0105 C
26 N26    -1.2135     3.5678     0.0028 N
27 C27    -1.1421     5.0354     0.0323 C
28 H28    -1.8185     5.4098     0.8017 H
29 H29    -0.1147     5.3204     0.2391 H
30 H30    -1.4618     5.4429    -0.9302 H
31 O31     1.0554     3.5769     0.0299 O
32 O32    -3.4130     3.9448    -0.2205 O
33 C33    -4.7338     0.1279    -0.0143 C
34 C34    -4.3383     1.4392    -0.0637 C
35 C35    -6.0785    -0.3808    -0.0068 C
36 C36    -6.5030    -1.6857     0.0486 C
37 S37    -7.4688     0.6664    -0.0705 S
38 C38    -7.9099    -1.8401     0.0402 C
39 C39    -8.5740    -0.6539    -0.0217 C
40 F40    -5.6716    -2.7308     0.1062 F
41 F41    -8.4865    -3.0407     0.0891 F
42 H42     8.1307    -1.7584    -0.1147 H
43 H43    -5.0318     2.2719    -0.1075 H
44 Se44     6.3300     1.4965     0.1040 Se
45 Se45    -3.2418    -1.0045     0.0482 Se
46 H46    -9.6425    -0.4910    -0.0415 H
47 H47     8.8053     0.7648     0.0443 H
@<TRIPOS>BOND
1 1 2 1
2 1 7 1
3 1 9 2
4 2 3 Ar
5 2 14 Ar
6 3 4 Ar
7 3 44 1
8 4 6 Ar
9 4 16 1
10 5 6 1
11 5 7 1
12 5 8 2
13 6 15 Ar
14 7 10 1
15 10 11 1
16 10 12 1
17 10 13 1
18 14 17 2
19 14 42 1
20 15 18 2
21 15 19 1
22 16 18 1
23 17 44 1
24 17 47 1
25 18 21 Ar
26 19 20 1
27 20 21 Ar
28 20 22 Ar
29 21 25 1
30 22 23 Ar
31 22 45 1
32 23 24 1
33 23 34 Ar
34 24 26 1
35 24 32 2
36 25 26 1
37 25 31 2
38 26 27 1
39 27 28 1
40 27 29 1
41 27 30 1
42 33 34 2
43 33 35 Ar
44 33 45 1
45 34 43 1
46 35 36 2
47 35 37 1
48 36 38 Ar
49 36 40 1
50 37 39 1
51 38 39 2
52 38 41 1
53 39 46 1
