# f-BTI2TEG-FT
# Created by GaussView 6.1.1
#

#
#

@<TRIPOS>MOLECULE
Molecule Name
47 53
SMALL
NO_CHARGES


@<TRIPOS>ATOM
1 C1     5.8397    -2.3483     0.0004 C
2 C2     6.1904    -0.9156     0.0004 C
3 C3     5.3869     0.2181     0.0001 C
4 C4     3.9618     0.2918     0.0000 C
5 C5     3.2792    -2.2325    -0.0004 C
6 C6     3.0755    -0.7799    -0.0002 C
7 N7     4.5291    -2.8542    -0.0002 N
8 O8     2.2610    -2.9233    -0.0007 O
9 O9     6.7527    -3.1643     0.0008 O
10 C10     4.5017    -4.3236    -0.0005 C
11 H11     5.0223    -4.6972     0.8837 H
12 H12     3.4640    -4.6432    -0.0011 H
13 H13     5.0233    -4.6969    -0.8843 H
14 C14     7.5801    -0.5886     0.0006 C
15 C15     1.7364    -0.3067    -0.0002 C
16 S16     6.3530     1.6596     0.0000 S
17 S17     3.1505     1.8423     0.0002 S
18 C18     7.8139     0.7524     0.0004 C
19 C19     1.6114     1.0701    -0.0000 C
20 S20     0.1984    -1.0806    -0.0005 S
21 C21    -0.6142     0.4701    -0.0003 C
22 C22     0.2728     1.5436    -0.0001 C
23 C23    -2.0362     0.5430    -0.0002 C
24 C24    -2.8405     1.6771    -0.0000 C
25 C25    -2.4911     3.1114    -0.0002 C
26 C26     0.0689     2.9951    -0.0000 C
27 N27    -1.1827     3.6170    -0.0002 N
28 C28    -1.1559     5.0865    -0.0004 C
29 H29    -1.6768     5.4599     0.8837 H
30 H30    -0.1182     5.4062    -0.0006 H
31 H31    -1.6772     5.4596    -0.8844 H
32 O32     1.0854     3.6883     0.0001 O
33 O33    -3.4068     3.9248    -0.0003 O
34 S34    -2.9949    -0.9031    -0.0002 S
35 C35    -4.4794     0.0050     0.0001 C
36 C36    -4.2215     1.3539     0.0002 C
37 C37    -5.7638    -0.6474     0.0002 C
38 C38    -6.0531    -1.9899     0.0000 C
39 S39    -7.2512     0.2569     0.0007 S
40 C40    -7.4387    -2.2823     0.0002 C
41 C41    -8.2190    -1.1678     0.0006 C
42 F42    -5.1260    -2.9506    -0.0003 F
43 F43    -7.8917    -3.5358     0.0001 F
44 H44     8.3497    -1.3498     0.0008 H
45 H45    -4.9830     2.1249     0.0003 H
46 H46    -9.2985    -1.1118     0.0008 H
47 H47     8.7666     1.2662     0.0005 H
@<TRIPOS>BOND
1 1 2 1
2 1 7 1
3 1 9 2
4 2 3 Ar
5 2 14 Ar
6 3 4 Ar
7 3 16 1
8 4 6 Ar
9 4 17 1
10 5 6 1
11 5 7 1
12 5 8 2
13 6 15 Ar
14 7 10 1
15 10 11 1
16 10 12 1
17 10 13 1
18 14 18 2
19 14 44 1
20 15 19 2
21 15 20 1
22 16 18 1
23 17 19 1
24 18 47 1
25 19 22 Ar
26 20 21 1
27 21 22 Ar
28 21 23 Ar
29 22 26 1
30 23 24 Ar
31 23 34 1
32 24 25 1
33 24 36 Ar
34 25 27 1
35 25 33 2
36 26 27 1
37 26 32 2
38 27 28 1
39 28 29 1
40 28 30 1
41 28 31 1
42 34 35 1
43 35 36 2
44 35 37 Ar
45 36 45 1
46 37 38 2
47 37 39 1
48 38 40 Ar
49 38 42 1
50 39 41 1
51 40 41 2
52 40 43 1
53 41 46 1
