# f-BTI2TEG-FT
# Created by GaussView 6.1.1
#

#
#

@<TRIPOS>MOLECULE
Molecule Name
75 81
SMALL
NO_CHARGES


@<TRIPOS>ATOM
1 C1     5.9460    -0.0825    -0.0937 C
2 C2     5.6966     1.3715    -0.0458 C
3 C3     4.5116     2.0954    -0.0205 C
4 C4     3.1763     1.5964    -0.0423 C
5 C5     3.5617    -0.9917    -0.0193 C
6 C6     2.7952     0.2597    -0.0435 C
7 N7     4.9595    -1.0778    -0.0445 N
8 O8     2.8915    -2.0234     0.0066 O
9 O9     7.1133    -0.4492    -0.1683 O
10 C10     5.4869    -2.4653     0.0532 C
11 H11     4.6057    -3.0972    -0.0459 H
12 C12     6.8435     2.2226    -0.0252 C
13 C13     1.3781     0.1577    -0.0596 C
14 S14     4.8269     3.8002     0.0329 S
15 S15     1.8135     2.6927    -0.0673 S
16 C16     6.5278     3.5458     0.0186 C
17 C17     0.7124     1.3694    -0.0751 C
18 S18     0.2778    -1.1670    -0.0590 S
19 C19    -1.0858    -0.0707    -0.0856 C
20 C20    -0.7037     1.2667    -0.0902 C
21 C21    -2.4203    -0.5632    -0.1035 C
22 C22    -3.6057     0.1634    -0.1244 C
23 C23    -3.8654     1.6199    -0.1245 C
24 C24    -1.4737     2.5127    -0.1014 C
25 N25    -2.8629     2.6120    -0.1070 N
26 C26    -3.3830     4.0025    -0.0119 C
27 H27    -4.4553     3.9006    -0.1701 H
28 O28    -0.8161     3.5545    -0.1073 O
29 O29    -5.0389     1.9683    -0.1485 O
30 S30    -2.7278    -2.2701    -0.1078 S
31 C31    -4.4495    -2.0232    -0.1373 C
32 C32    -4.7453    -0.6824    -0.1435 C
33 C33    -5.3720    -3.1296    -0.1523 C
34 C34    -5.1080    -4.4772    -0.1514 C
35 S35    -7.0954    -2.8857    -0.1768 S
36 C36    -6.2657    -5.2927    -0.1700 C
37 C37    -7.4225    -4.5767    -0.1855 C
38 F38    -3.8771    -4.9942    -0.1347 F
39 F39    -6.1873    -6.6233    -0.1719 F
40 H40     7.8518     1.8296    -0.0413 H
41 H41    -5.7500    -0.2775    -0.1610 H
42 C42    -3.1443     4.5915     1.3817 C
43 H43    -3.5652     5.6102     1.3780 H
44 H44    -2.0737     4.6609     1.5874 H
45 C45    -2.8968     4.9324    -1.1234 C
46 H46    -2.0224     5.5198    -0.8124 H
47 H47    -2.6103     4.3525    -2.0155 H
48 C48     6.1239    -2.7228     1.4219 C
49 H49     6.4754    -3.7675     1.4229 H
50 H50     6.9858    -2.0683     1.5701 H
51 C51     6.4061    -2.8712    -1.0986 C
52 H52     6.1990    -2.2612    -1.9924 H
53 H53     7.4657    -2.7381    -0.8422 H
54 C54     6.9979    -4.7737    -2.3266 C
55 H55     8.0502    -4.7177    -2.0061 H
56 H56     6.7191    -5.8218    -2.4592 H
57 H57     6.8973    -4.2508    -3.2910 H
58 C58     4.3109    -3.5115     2.7263 C
59 H59     3.5841    -3.5934     1.9073 H
60 H60     4.8114    -4.4821     2.8656 H
61 H61     3.7789    -3.2514     3.6447 H
62 C62    -5.0945     3.9748     2.5757 C
63 H63    -5.3717     3.4153     3.4727 H
64 H64    -5.3618     5.0332     2.7179 H
65 H65    -5.6522     3.5716     1.7201 H
66 C66    -3.6333     6.7808    -2.3557 C
67 H67    -2.8176     7.4206    -1.9832 H
68 H68    -3.3205     6.3369    -3.3141 H
69 H69    -4.5225     7.3939    -2.5207 H
70 O70     6.1360    -4.2333    -1.3584 O
71 O71     5.2539    -2.4863     2.5007 O
72 O72    -3.7002     3.8240     2.4201 O
73 O73    -3.9782     5.7909    -1.4209 O
74 H74    -8.4363    -4.9512    -0.2010 H
75 H75     7.1996     4.3940     0.0467 H
@<TRIPOS>BOND
1 1 2 1
2 1 7 1
3 1 9 2
4 2 3 Ar
5 2 12 Ar
6 3 4 Ar
7 3 14 1
8 4 6 Ar
9 4 15 1
10 5 6 1
11 5 7 1
12 5 8 2
13 6 13 Ar
14 7 10 1
15 10 11 1
16 10 48 1
17 10 51 1
18 12 16 2
19 12 40 1
20 13 17 2
21 13 18 1
22 14 16 1
23 15 17 1
24 16 75 1
25 17 20 Ar
26 18 19 1
27 19 20 Ar
28 19 21 Ar
29 20 24 1
30 21 22 Ar
31 21 30 1
32 22 23 1
33 22 32 Ar
34 23 25 1
35 23 29 2
36 24 25 1
37 24 28 2
38 25 26 1
39 26 27 1
40 26 42 1
41 26 45 1
42 30 31 1
43 31 32 2
44 31 33 Ar
45 32 41 1
46 33 34 2
47 33 35 1
48 34 36 Ar
49 34 38 1
50 35 37 1
51 36 37 2
52 36 39 1
53 37 74 1
54 42 43 1
55 42 44 1
56 42 72 1
57 45 46 1
58 45 47 1
59 45 73 1
60 48 49 1
61 48 50 1
62 48 71 1
63 51 52 1
64 51 53 1
65 51 70 1
66 54 55 1
67 54 56 1
68 54 57 1
69 54 70 1
70 58 59 1
71 58 60 1
72 58 61 1
73 58 71 1
74 62 63 1
75 62 64 1
76 62 65 1
77 62 72 1
78 66 67 1
79 66 68 1
80 66 69 1
81 66 73 1
