# FBDPPV
# Created by GaussView 6.1.1
#

#
#

@<TRIPOS>MOLECULE
Molecule Name
56 62
SMALL
NO_CHARGES


@<TRIPOS>ATOM
1 C1     0.3162     1.2556    -0.1054 C
2 C2    -1.0584     1.2961    -0.0726 C
3 C3    -1.9187     0.1823    -0.1195 C
4 C4    -1.3387    -1.0961    -0.1568 C
5 C5     0.0360    -1.1373    -0.1858 C
6 C6     0.8950    -0.0212    -0.1862 C
7 H7     0.9091     2.1584    -0.0788 H
8 H8    -1.9315    -1.9992    -0.1706 H
9 C9     2.2487    -0.5486    -0.1582 C
10 C10    -3.0870     2.1899     0.1065 C
11 C11    -3.2704     0.7045     0.0030 C
12 C12     2.0708    -2.0351    -0.1592 C
13 O13    -1.7536     2.4754     0.0341 O
14 O14     0.7344    -2.3192    -0.1961 O
15 O15    -3.8877     3.0875     0.1792 O
16 O16     2.8750    -2.9328    -0.1890 O
17 C17    -4.4996     0.0944    -0.0122 C
18 C18    -4.6978    -1.3269    -0.4943 C
19 C19     3.4788     0.0636    -0.1760 C
20 C20     3.6623     1.5152    -0.5660 C
21 N21    -6.0407    -1.5919    -0.4379 N
22 N22     5.0077     1.7762    -0.5421 N
23 O23    -3.8607    -2.1094    -0.9210 O
24 O24     2.8113     2.3245    -0.9047 O
25 C25    -6.6138    -2.8526    -0.8565 C
26 H26    -5.7972    -3.4738    -1.2277 H
27 H27    -7.0966    -3.3554    -0.0141 H
28 H28    -7.3411    -2.6955    -1.6574 H
29 C29     5.5650     3.0629    -0.8991 C
30 H30     6.0805     3.5114    -0.0456 H
31 H31     6.2594     2.9608    -1.7371 H
32 H32     4.7339     3.7046    -1.1962 H
33 C33    -6.7241    -0.4967     0.0671 C
34 C34    -5.8324     0.5737     0.3311 C
35 C35     4.8168    -0.4356     0.0801 C
36 C36     5.7040     0.6465    -0.1409 C
37 C37    -6.3274     1.7467     0.9139 C
38 C38    -7.6878     1.8546     1.1944 C
39 C39    -8.5647     0.8090     0.9056 C
40 C40    -8.0723    -0.3623     0.3486 C
41 C41     5.3404    -1.6430     0.5664 C
42 C42     7.0600     0.4968     0.0778 C
43 C43     6.7026    -1.7668     0.7865 C
44 C44     7.6008    -0.7120     0.5369 C
45 C45     9.0457    -0.8126     0.7460 C
46 C46     9.7144    -1.9309     1.0648 C
47 H47    -9.6281     0.8859     1.1142 H
48 H48    -8.0742     2.7660     1.6405 H
49 H49    -5.6642     2.5691     1.1376 H
50 H50     4.6887    -2.4810     0.7662 H
51 H51     7.0861    -2.7078     1.1675 H
52 H52     9.6080     0.1097     0.6205 H
53 H53    10.7922    -1.9021     1.2023 H
54 H54     9.2313    -2.8968     1.1936 H
55 F55    -8.9273    -1.3780     0.0936 F
56 F56     7.8873     1.5406    -0.1508 F
@<TRIPOS>BOND
1 1 2 2
2 1 6 Ar
3 1 7 1
4 2 3 Ar
5 2 13 1
6 3 4 Ar
7 3 11 1
8 4 5 2
9 4 8 1
10 5 6 Ar
11 5 14 1
12 6 9 1
13 9 12 1
14 9 19 2
15 10 11 1
16 10 13 1
17 10 15 2
18 11 17 2
19 12 14 1
20 12 16 2
21 17 18 1
22 17 34 1
23 18 21 Ar
24 18 23 2
25 19 20 1
26 19 35 1
27 20 22 Ar
28 20 24 2
29 21 25 1
30 21 33 1
31 22 29 1
32 22 36 1
33 25 26 1
34 25 27 1
35 25 28 1
36 29 30 1
37 29 31 1
38 29 32 1
39 33 34 Ar
40 33 40 2
41 34 37 Ar
42 35 36 Ar
43 35 41 Ar
44 36 42 2
45 37 38 Ar
46 37 49 1
47 38 39 Ar
48 38 48 1
49 39 40 Ar
50 39 47 1
51 40 55 1
52 41 43 2
53 41 50 1
54 42 44 Ar
55 42 56 1
56 43 44 Ar
57 43 51 1
58 44 45 1
59 45 46 2
60 45 52 1
61 46 53 1
62 46 54 1
