# LPPV
# Created by GaussView 6.1.1
#

#
#

@<TRIPOS>MOLECULE
Molecule Name
42 47
SMALL
NO_CHARGES


@<TRIPOS>ATOM
1 C1     3.9476    -0.3633     0.1038 C
2 C2     2.6052    -0.6878     0.0075 C
3 C3     1.6840     0.3706    -0.1030 C
4 C4     2.1751     1.7035    -0.0986 C
5 C5     3.5203     2.0258    -0.0057 C
6 C6     4.4171     0.9652     0.0945 C
7 H7     2.2711    -1.7142    -0.0022 H
8 H8     3.8571     3.0582    -0.0072 H
9 N9     1.1206     2.6022    -0.1837 N
10 C10     5.8679     0.9056     0.2021 C
11 C11     6.2231    -0.5570     0.2773 C
12 N12     5.0286    -1.2440     0.2122 N
13 O13     7.3310    -1.0536     0.3752 O
14 C14     4.9258    -2.6789     0.2474 C
15 H15     4.3399    -3.0074     1.1138 H
16 H16     4.4519    -3.0582    -0.6652 H
17 H17     5.9392    -3.0783     0.3236 H
18 C18     0.2293     0.4543    -0.1719 C
19 C19    -0.0783     1.9410    -0.2244 C
20 O20    -1.1578     2.5019    -0.3184 O
21 C21     1.2426     4.0350    -0.2293 C
22 H22     0.2358     4.4491    -0.3087 H
23 H23     1.7192     4.4146     0.6821 H
24 H24     1.8314     4.3469    -1.0997 H
25 C25    -2.6789    -1.7617    -0.2044 C
26 C26    -3.9978    -2.1561    -0.1271 C
27 C27    -4.9249    -1.1296     0.0523 C
28 C28    -4.4857     0.1978     0.1470 C
29 C29    -3.1672     0.5927     0.0666 C
30 C30    -2.2178    -0.4300    -0.1215 C
31 H31    -4.2758    -3.2024    -0.1993 H
32 H32    -2.8802     1.6319     0.1260 H
33 C33    -0.7621    -0.5039    -0.2027 C
34 C34    -0.4744    -1.9717    -0.3557 C
35 O35     0.5592    -2.5712    -0.4951 O
36 C36    -6.3695    -1.0882     0.1764 C
37 C37    -6.7084     0.3621     0.3512 C
38 O38    -7.7760     0.8879     0.4945 O
39 O39    -1.6579    -2.6584    -0.3581 O
40 O40    -5.5320     1.0787     0.3237 O
41 H41     6.5453     1.7335     0.2236 H
42 H42    -7.0479    -1.9151     0.1492 H
@<TRIPOS>BOND
1 1 2 2
2 1 6 Ar
3 1 12 1
4 2 3 Ar
5 2 7 1
6 3 4 Ar
7 3 18 1
8 4 5 Ar
9 4 9 1
10 5 6 Ar
11 5 8 1
12 6 10 1
13 9 19 Ar
14 9 21 1
15 10 11 1
16 10 41 1
17 11 12 Ar
18 11 13 2
19 12 14 1
20 14 15 1
21 14 16 1
22 14 17 1
23 18 19 1
24 18 33 2
25 19 20 2
26 21 22 1
27 21 23 1
28 21 24 1
29 25 26 2
30 25 30 Ar
31 25 39 1
32 26 27 Ar
33 26 31 1
34 27 28 Ar
35 27 36 1
36 28 29 2
37 28 40 1
38 29 30 Ar
39 29 32 1
40 30 33 1
41 33 34 1
42 34 35 2
43 34 39 1
44 36 37 1
45 36 42 1
46 37 38 2
47 37 40 1
