# N-N
# Created by GaussView 6.1.1
#

#
#

@<TRIPOS>MOLECULE
Molecule Name
62 69
SMALL
NO_CHARGES


@<TRIPOS>ATOM
1 C1     2.5975    -1.2133    -0.0935 C
2 C2     3.9541    -1.2629    -0.2736 C
3 C3     2.7535     1.1715     0.3434 C
4 C4     1.9717     0.0058     0.2465 C
5 C5     4.1582     1.1710     0.1299 C
6 C6     4.7732    -0.1080    -0.1545 C
7 C7     6.1818    -0.1165    -0.3296 C
8 C8     6.9285     1.0631    -0.2872 C
9 C9     6.3119     2.2988    -0.0539 C
10 C10     4.9560     2.3489     0.1583 C
11 H11     2.0066    -2.1138    -0.1782 H
12 H12     4.3979    -2.2157    -0.5227 H
13 H13     6.9023     3.2109    -0.0369 H
14 H14     4.4997     3.3109     0.3358 H
15 C15     8.3559    -0.7579    -0.7007 C
16 N16     7.0448    -1.1994    -0.5758 N
17 O17     9.3213    -1.4724    -0.9045 O
18 C18     6.7637    -2.6148    -0.6286 C
19 H19     6.2715    -2.9568     0.2869 H
20 H20     6.1520    -2.8747    -1.4986 H
21 H21     7.7304    -3.1155    -0.7221 H
22 N22     1.9225     2.2613     0.6140 N
23 C23     0.5785     0.3753     0.4035 C
24 C24     0.5989     1.8567     0.6472 C
25 O25    -0.3230     2.6099     0.9183 O
26 C26     8.3209     0.7265    -0.5255 C
27 C27    -6.3119    -2.2988    -0.0543 C
28 C28    -4.9560    -2.3489     0.1580 C
29 C29    -6.1818     0.1165    -0.3299 C
30 C30    -6.9285    -1.0631    -0.2876 C
31 C31    -4.7732     0.1080    -0.1548 C
32 C32    -4.1582    -1.1710     0.1297 C
33 C33    -2.7535    -1.1714     0.3433 C
34 C34    -1.9717    -0.0058     0.2465 C
35 C35    -2.5975     1.2133    -0.0936 C
36 C36    -3.9541     1.2629    -0.2737 C
37 H37    -6.9023    -3.2109    -0.0374 H
38 H38    -4.4997    -3.3109     0.3354 H
39 H39    -2.0066     2.1139    -0.1782 H
40 H40    -4.3979     2.2157    -0.5228 H
41 C41    -0.5989    -1.8566     0.6472 C
42 N42    -1.9225    -2.2613     0.6139 N
43 O43     0.3230    -2.6098     0.9184 O
44 C44    -2.2515    -3.6162     0.9928 C
45 H45    -2.9745    -3.6290     1.8137 H
46 H46    -2.6362    -4.1954     0.1470 H
47 H47    -1.3202    -4.0766     1.3300 H
48 N48    -7.0448     1.1994    -0.5761 N
49 C49    -8.3209    -0.7265    -0.5260 C
50 C50    -8.3559     0.7579    -0.7011 C
51 O51    -9.3212     1.4724    -0.9049 O
52 C52    -0.5786    -0.3753     0.4035 C
53 C53     2.2515     3.6163     0.9929 C
54 H54     2.9743     3.6291     1.8138 H
55 H55     2.6363     4.1954     0.1471 H
56 H56     1.3201     4.0766     1.3300 H
57 C57    -6.7637     2.6148    -0.6288 C
58 H58    -6.2716     2.9567     0.2868 H
59 H59    -6.1519     2.8748    -1.4988 H
60 H60    -7.7304     3.1155    -0.7223 H
61 H61     9.1503     1.4012    -0.5670 H
62 H62    -9.1502    -1.4013    -0.5676 H
@<TRIPOS>BOND
1 1 2 2
2 1 4 Ar
3 1 11 1
4 2 6 Ar
5 2 12 1
6 3 4 Ar
7 3 5 Ar
8 3 22 1
9 4 23 1
10 5 6 Ar
11 5 10 Ar
12 6 7 Ar
13 7 8 Ar
14 7 16 1
15 8 9 Ar
16 8 26 1
17 9 10 2
18 9 13 1
19 10 14 1
20 15 16 1
21 15 17 2
22 15 26 1
23 16 18 1
24 18 19 1
25 18 20 1
26 18 21 1
27 22 24 1
28 22 53 1
29 23 24 1
30 23 52 2
31 24 25 2
32 26 61 1
33 27 28 2
34 27 30 Ar
35 27 37 1
36 28 32 Ar
37 28 38 1
38 29 30 Ar
39 29 31 Ar
40 29 48 1
41 30 49 1
42 31 32 Ar
43 31 36 Ar
44 32 33 Ar
45 33 34 Ar
46 33 42 1
47 34 35 Ar
48 34 52 1
49 35 36 2
50 35 39 1
51 36 40 1
52 41 42 1
53 41 43 2
54 41 52 1
55 42 44 1
56 44 45 1
57 44 46 1
58 44 47 1
59 48 50 1
60 48 57 1
61 49 50 1
62 49 62 1
63 50 51 2
64 53 54 1
65 53 55 1
66 53 56 1
67 57 58 1
68 57 59 1
69 57 60 1
