# n-PT2
# Created by GaussView 6.1.1
#

#
#

@<TRIPOS>MOLECULE
Molecule Name
46 51
SMALL
NO_CHARGES


@<TRIPOS>ATOM
1 C1     6.1013    -0.1922    -0.0002 C
2 C2     3.5993     0.1434    -0.0001 C
3 C3     3.9990    -1.1805     0.0000 C
4 C4     5.4002    -1.3595    -0.0001 C
5 C5     3.3798    -2.5255     0.0002 C
6 O6     2.2091    -2.8503     0.0006 O
7 S7     5.0374     1.1568    -0.0003 S
8 C8     2.2720     0.7118    -0.0001 C
9 C9     1.8585     2.0298    -0.0001 C
10 S10     0.8482    -0.3160    -0.0000 S
11 C11     0.4583     2.2110    -0.0000 C
12 C12     2.4882     3.3689    -0.0001 C
13 C13    -0.2596     1.0327    -0.0000 C
14 C14     0.1748     3.6604    -0.0000 C
15 O15     3.6605     3.6883    -0.0001 O
16 O16    -0.8843     4.2588     0.0001 O
17 C17    -1.6841     0.8184     0.0000 C
18 C18    -2.6767     1.7739     0.0000 C
19 S19    -2.3589    -0.7844    -0.0001 S
20 C20    -3.9743     1.2107     0.0000 C
21 H21    -2.4739     2.8402     0.0001 H
22 C22    -3.9873    -0.1896     0.0000 C
23 C23    -5.1180    -1.0864     0.0000 C
24 C24    -5.1299    -2.4851    -0.0004 C
25 S25    -6.7520    -0.4954     0.0006 S
26 C26    -6.4406    -3.0414    -0.0002 C
27 C27    -7.4070    -2.0797     0.0003 C
28 H28    -6.6315    -4.1080    -0.0005 H
29 C29    -3.9814    -3.3207    -0.0010 C
30 N30    -3.0739    -4.0484    -0.0014 N
31 C31    -5.1298     2.0392     0.0001 C
32 N32    -6.0517     2.7479     0.0001 N
33 N33     4.4446    -3.4283     0.0003 N
34 N34     1.4294     4.2761    -0.0000 N
35 C35     5.7014    -2.8080     0.0001 C
36 O36     6.7668    -3.3842     0.0002 O
37 C37     1.6221     5.7073    -0.0000 C
38 H38     2.1795     6.0151     0.8891 H
39 H39     2.1794     6.0151    -0.8892 H
40 H40     0.6347     6.1723     0.0001 H
41 C41     4.2551    -4.8598     0.0006 C
42 H42     3.6984    -5.1696     0.8895 H
43 H43     3.6982    -5.1699    -0.8881 H
44 H44     5.2441    -5.3215     0.0005 H
45 H45     7.1739    -0.0421    -0.0003 H
46 H46    -8.4811    -2.2141     0.0006 H
@<TRIPOS>BOND
1 1 4 2
2 1 7 1
3 1 45 1
4 2 3 2
5 2 7 1
6 2 8 Ar
7 3 4 Ar
8 3 5 1
9 4 35 1
10 5 6 2
11 5 33 1
12 8 9 2
13 8 10 1
14 9 11 Ar
15 9 12 1
16 10 13 1
17 11 13 2
18 11 14 1
19 12 15 2
20 12 34 1
21 13 17 Ar
22 14 16 2
23 14 34 1
24 17 18 2
25 17 19 1
26 18 20 Ar
27 18 21 1
28 19 22 1
29 20 22 Ar
30 20 31 Ar
31 22 23 Ar
32 23 24 Ar
33 23 25 1
34 24 26 Ar
35 24 29 Ar
36 25 27 1
37 26 27 2
38 26 28 1
39 27 46 1
40 29 30 3
41 31 32 3
42 33 35 1
43 33 41 1
44 34 37 1
45 35 36 2
46 37 38 1
47 37 39 1
48 37 40 1
49 41 42 1
50 41 43 1
51 41 44 1
