# n-PT4
# Created by GaussView 6.1.1
#

#
#

@<TRIPOS>MOLECULE
Molecule Name
74 79
SMALL
NO_CHARGES


@<TRIPOS>ATOM
1 C1    -1.0021    -5.2216    -0.9382 C
2 C2    -0.3399    -2.7885    -0.8102 C
3 C3    -1.7050    -3.0087    -0.8515 C
4 C4    -2.0664    -4.3725    -0.9239 C
5 C5    -2.9547    -2.2152    -0.8567 C
6 O6    -3.1164    -1.0119    -0.8207 O
7 S7     0.4749    -4.3468    -0.8663 S
8 C8     0.3991    -1.5507    -0.7275 C
9 C9     1.7601    -1.3127    -0.7234 C
10 S10    -0.4322    -0.0102    -0.5998 S
11 C11     2.1223     0.0482    -0.6221 C
12 C12     3.0041    -2.1099    -0.7991 C
13 C13     1.0481     0.9096    -0.5378 C
14 C14     3.5957     0.1413    -0.6369 C
15 O15     3.1610    -3.3104    -0.8957 O
16 O16     4.3290     1.1099    -0.5821 O
17 C17     1.0197     2.3459    -0.4250 C
18 C18     2.0943     3.2096    -0.4099 C
19 S19    -0.4797     3.2127    -0.2721 S
20 C20     1.7029     4.5632    -0.2753 C
21 H21     3.1242     2.8745    -0.4817 H
22 C22     0.3199     4.7423    -0.1819 C
23 C23    -0.4301     5.9704    -0.0547 C
24 C24    -1.6985     6.1688     0.4935 C
25 S25     0.1953     7.4743    -0.6447 S
26 C26    -2.1333     7.5237     0.4284 C
27 C27    -1.2077     8.3335    -0.1626 C
28 H28    -3.0873     7.8604     0.8162 H
29 C29    -2.4937     5.1570     1.0975 C
30 N30    -3.1761     4.3613     1.6010 N
31 C31     2.6589     5.6152    -0.2152 C
32 N32     3.4629     6.4537    -0.1721 N
33 C33     5.4437    -1.5426    -0.8115 C
34 H34     5.9806    -0.7259    -1.3011 H
35 H35     5.5273    -2.4464    -1.4208 H
36 C36     6.0307    -1.7935     0.5704 C
37 H37     5.9408    -0.8854     1.1885 H
38 H38     5.4820    -2.6081     1.0708 H
39 C39     8.0504    -2.3986     1.6000 C
40 H40     8.0280    -1.5133     2.2547 H
41 H41     7.5750    -3.2332     2.1389 H
42 C42    -5.3907    -2.7818    -0.9742 C
43 H43    -5.4730    -1.8273    -1.5010 H
44 H44    -5.9208    -3.5532    -1.5392 H
45 C45    -5.9904    -2.6568     0.4194 C
46 H46    -5.4523    -1.8856     0.9940 H
47 H47    -5.8986    -3.6154     0.9557 H
48 C48    -8.0218    -2.1560     1.4815 C
49 H49    -7.5507    -1.3742     2.0976 H
50 H50    -8.0059    -3.0970     2.0535 H
51 O51    -7.3395    -2.3052     0.2573 O
52 O52     7.3783    -2.1400     0.3883 O
53 N53    -3.9924    -3.1510    -0.9238 N
54 N54     4.0446    -1.1788    -0.7403 N
55 C55    -3.5409    -4.4779    -0.9713 C
56 O56    -4.2541    -5.4541    -1.0411 O
57 C57    -9.4522    -1.7707     1.1662 C
58 H58    -9.9184    -2.5479     0.5387 H
59 H59    -9.4681    -0.8252     0.5998 H
60 C60   -11.4800    -1.2698     2.2167 C
61 H61   -12.0316    -2.0266     1.6370 H
62 H62   -11.9224    -1.1900     3.2124 H
63 H63   -11.5703    -0.2993     1.7038 H
64 C64     9.4840    -2.7537     1.2642 C
65 H65     9.5051    -3.6353     0.6028 H
66 H66     9.9599    -1.9173     0.7267 H
67 C67    11.5001    -3.3553     2.2843 C
68 H68    11.9286    -3.5403     3.2721 H
69 H69    11.6043    -4.2638     1.6705 H
70 H70    12.0547    -2.5370     1.7987 H
71 O71   -10.1348    -1.6355     2.3872 O
72 O72    10.1499    -3.0172     2.4732 O
73 H73    -0.9943    -6.3034    -0.9917 H
74 H74    -1.2697     9.4004    -0.3349 H
@<TRIPOS>BOND
1 1 4 2
2 1 7 1
3 1 73 1
4 2 3 2
5 2 7 1
6 2 8 Ar
7 3 4 Ar
8 3 5 1
9 4 55 1
10 5 6 2
11 5 53 1
12 8 9 2
13 8 10 1
14 9 11 Ar
15 9 12 1
16 10 13 1
17 11 13 2
18 11 14 1
19 12 15 2
20 12 54 1
21 13 17 Ar
22 14 16 2
23 14 54 1
24 17 18 2
25 17 19 1
26 18 20 Ar
27 18 21 1
28 19 22 1
29 20 22 Ar
30 20 31 Ar
31 22 23 Ar
32 23 24 Ar
33 23 25 1
34 24 26 Ar
35 24 29 Ar
36 25 27 1
37 26 27 2
38 26 28 1
39 27 74 1
40 29 30 3
41 31 32 3
42 33 34 1
43 33 35 1
44 33 36 1
45 33 54 1
46 36 37 1
47 36 38 1
48 36 52 1
49 39 40 1
50 39 41 1
51 39 52 1
52 39 64 1
53 42 43 1
54 42 44 1
55 42 45 1
56 42 53 1
57 45 46 1
58 45 47 1
59 45 51 1
60 48 49 1
61 48 50 1
62 48 51 1
63 48 57 1
64 53 55 1
65 55 56 2
66 57 58 1
67 57 59 1
68 57 71 1
69 60 61 1
70 60 62 1
71 60 63 1
72 60 71 1
73 64 65 1
74 64 66 1
75 64 72 1
76 67 68 1
77 67 69 1
78 67 70 1
79 67 72 1
