# N2200 PBC
# Created by GaussView 6.1.1
#

#
#

@<TRIPOS>MOLECULE
Molecule Name
36 39
SMALL
NO_CHARGES


@<TRIPOS>ATOM
1 C1     1.1654    -1.6985     0.0081 C
2 C2     0.5902    -0.4070    -0.0198 C
3 C3     1.3936     0.7653    -0.0561 C
4 C4     2.8714     0.6120    -0.0129 C
5 C5     0.3688    -2.8306     0.0435 C
6 C6    -0.8240    -0.3083    -0.0103 C
7 C7    -1.6209    -1.4710     0.0259 C
8 C8    -1.0285    -2.7212     0.0536 C
9 C9    -2.8954     1.1042    -0.0497 C
10 C10    -1.4192     0.9704    -0.0463 C
11 C11    -0.6327     2.0950    -0.0996 C
12 C12     0.7862     2.0311    -0.0987 C
13 C13    -5.0876     0.0795    -0.0032 C
14 H14    -5.3939     0.6765     0.8590 H
15 H15    -5.4061     0.5970    -0.9114 H
16 H16    -5.5275    -0.9150     0.0438 H
17 C17     4.8329    -0.8672    -0.0038 C
18 H18     5.2928     0.1180    -0.0378 H
19 H19     5.1319    -1.3967     0.9044 H
20 H20     5.1355    -1.4663    -0.8657 H
21 N21    -3.6372    -0.0735    -0.0054 N
22 N22     3.3846    -0.6903    -0.0178 N
23 O23    -3.4575     2.1860    -0.0855 O
24 O24     3.6371     1.5626     0.0271 O
25 C25     2.6327    -1.8579    -0.0024 C
26 O26     3.1811    -2.9485     0.0069 O
27 H27    -1.1245     3.0597    -0.1730 H
28 C28     1.5235     3.3001    -0.1799 C
29 C29     1.0809     4.4495     0.3480 C
30 H30     2.4869     3.2790    -0.6749 H
31 H31     0.1602     4.5204     0.9228 H
32 C32    -3.1000    -1.3631     0.0324 C
33 O33    -3.8186    -2.3474     0.0679 O
34 H34     0.8546    -3.8014     0.0625 H
35 H35    -1.6617    -3.6024     0.0821 H
36 H36     1.6612     5.3617     0.2463 H
@<TRIPOS>BOND
1 1 2 Ar
2 1 5 2
3 1 25 1
4 2 3 Ar
5 2 6 Ar
6 3 4 1
7 3 12 Ar
8 4 22 1
9 4 24 2
10 5 8 Ar
11 5 34 1
12 6 7 Ar
13 6 10 Ar
14 7 8 2
15 7 32 1
16 8 35 1
17 9 10 1
18 9 21 1
19 9 23 2
20 10 11 2
21 11 12 Ar
22 11 27 1
23 12 28 1
24 13 14 1
25 13 15 1
26 13 16 1
27 13 21 1
28 17 18 1
29 17 19 1
30 17 20 1
31 17 22 1
32 21 32 1
33 22 25 1
34 25 26 2
35 28 29 2
36 28 30 1
37 29 31 1
38 29 36 1
39 32 33 2
