# N2200
# Created by GaussView 6.1.1
#

#
#

@<TRIPOS>MOLECULE
Molecule Name
46 51
SMALL
NO_CHARGES


@<TRIPOS>ATOM
1 C1    -4.7258    -2.0551    -0.0177 C
2 C2    -4.2060    -0.6707     0.0053 C
3 C3    -2.8141    -0.4474    -0.0086 C
4 C4    -1.9136    -1.5313    -0.0541 C
5 C5    -2.4176    -2.9239    -0.0786 C
6 C6    -5.0820     0.3981     0.0400 C
7 C7    -2.3031     0.8729     0.0267 C
8 C8    -3.2217     1.9479     0.0583 C
9 C9    -4.5844     1.7095     0.0603 C
10 C10    -2.7342     3.3419     0.0738 C
11 C11    -0.4277     2.4854     0.2741 C
12 C12    -0.9031     1.1000     0.0262 C
13 C13    -0.0262     0.0160    -0.1041 C
14 C14    -0.5601    -1.2974    -0.1119 C
15 H15     0.1129    -2.1446    -0.2046 H
16 H16    -6.1521     0.2169     0.0482 H
17 H17    -5.2677     2.5527     0.0775 H
18 C18     1.4165     0.1503    -0.3134 C
19 C19     2.0744     0.9053    -1.2551 C
20 S20     2.5393    -0.8153     0.5932 S
21 C21     3.4738     0.7076    -1.2521 C
22 H22     1.5577     1.5695    -1.9401 H
23 C23     3.8948    -0.2014    -0.3012 C
24 H24     4.1514     1.1989    -1.9440 H
25 C25     5.2388    -0.6395     0.0063 C
26 C26     5.6495    -1.7953     0.6372 C
27 S27     6.6115     0.3425    -0.4165 S
28 C28     7.0611    -1.8881     0.7682 C
29 H29     4.9616    -2.5637     0.9774 H
30 C30     7.7133    -0.8073     0.2369 C
31 H31     7.5730    -2.7267     1.2292 H
32 H32     8.7800    -0.6197     0.1913 H
33 C33    -0.8466     4.8741     0.2608 C
34 H34    -0.6641     5.1261     1.3105 H
35 H35     0.0897     4.9512    -0.2929 H
36 H36    -1.5875     5.5559    -0.1533 H
37 C37    -4.3424    -4.4424    -0.0972 C
38 H38    -3.5125    -5.1402    -0.1894 H
39 H39    -4.8956    -4.6423     0.8243 H
40 H40    -5.0178    -4.5485    -0.9493 H
41 N41    -1.3602     3.5157     0.1420 N
42 N42    -3.7986    -3.0906    -0.0677 N
43 O43    -3.4942     4.3011     0.0454 O
44 O44     0.7143     2.7583     0.6067 O
45 O45    -5.9224    -2.3064     0.0046 O
46 O46    -1.6617    -3.8844    -0.1081 O
@<TRIPOS>BOND
1 1 2 1
2 1 42 1
3 1 45 2
4 2 3 Ar
5 2 6 2
6 3 4 Ar
7 3 7 Ar
8 4 5 1
9 4 14 2
10 5 42 1
11 5 46 2
12 6 9 Ar
13 6 16 1
14 7 8 Ar
15 7 12 Ar
16 8 9 2
17 8 10 1
18 9 17 1
19 10 41 1
20 10 43 2
21 11 12 1
22 11 41 1
23 11 44 2
24 12 13 Ar
25 13 14 Ar
26 13 18 1
27 14 15 1
28 18 19 2
29 18 20 1
30 19 21 Ar
31 19 22 1
32 20 23 1
33 21 23 2
34 21 24 1
35 23 25 Ar
36 25 26 2
37 25 27 1
38 26 28 Ar
39 26 29 1
40 27 30 1
41 28 30 2
42 28 31 1
43 30 32 1
44 33 34 1
45 33 35 1
46 33 36 1
47 33 41 1
48 37 38 1
49 37 39 1
50 37 40 1
51 37 42 1
