# N2200 PBC
# Created by GaussView 6.1.1
#

#
#

@<TRIPOS>MOLECULE
Molecule Name
34 37
SMALL
NO_CHARGES


@<TRIPOS>ATOM
1 C1    -1.1103    -1.6783     0.0001 C
2 C2    -0.5609    -0.3755     0.0000 C
3 C3    -1.3937     0.7703    -0.0000 C
4 C4    -2.8676     0.5990    -0.0003 C
5 C5    -0.2864    -2.7901     0.0003 C
6 C6     0.8499    -0.2365     0.0000 C
7 C7     1.6735    -1.3811     0.0001 C
8 C8     1.1090    -2.6444     0.0002 C
9 C9     2.8864     1.2263    -0.0001 C
10 C10     1.4133     1.0581    -0.0000 C
11 C11     0.6005     2.1662     0.0001 C
12 C12    -0.8166     2.0465     0.0001 C
13 C13     5.1018     0.2525    -0.0004 C
14 H14     5.4001     0.8188    -0.8859 H
15 H15     5.4007     0.8165     0.8864 H
16 C16    -4.7990    -0.9178    -0.0007 C
17 H17    -5.2748     0.0609    -0.0026 H
18 H18    -5.0902    -1.4885    -0.8858 H
19 H19    -5.0911    -1.4853     0.8862 H
20 N20     3.6552     0.0647    -0.0003 N
21 N21    -3.3545    -0.7143    -0.0005 N
22 O22     3.4223     2.3212    -0.0000 O
23 O23    -3.6338     1.5450    -0.0004 O
24 C24    -2.5771    -1.8653     0.0002 C
25 O25    -3.1004    -2.9679     0.0007 O
26 H26     1.0509     3.1536     0.0001 H
27 C27    -1.5489     3.2656     0.0004 C
28 C28    -2.0257     4.3786     0.0007 C
29 H29     5.5658    -0.7321    -0.0017 H
30 H30    -0.7461    -3.7737     0.0004 H
31 C31     3.1499    -1.2382    -0.0000 C
32 O32     3.8912    -2.2058     0.0002 O
33 H33     1.7634    -3.5106     0.0003 H
34 H34    -2.5065     5.3323     0.0010 H
@<TRIPOS>BOND
1 1 2 Ar
2 1 5 2
3 1 24 1
4 2 3 Ar
5 2 6 Ar
6 3 4 1
7 3 12 Ar
8 4 21 1
9 4 23 2
10 5 8 Ar
11 5 30 1
12 6 7 Ar
13 6 10 Ar
14 7 8 2
15 7 31 1
16 8 33 1
17 9 10 1
18 9 20 1
19 9 22 2
20 10 11 2
21 11 12 Ar
22 11 26 1
23 12 27 Ar
24 13 14 1
25 13 15 1
26 13 20 1
27 13 29 1
28 16 17 1
29 16 18 1
30 16 19 1
31 16 21 1
32 20 31 1
33 21 24 1
34 24 25 2
35 27 28 3
36 28 34 1
37 31 32 2
