# P-0
# Created by GaussView 6.1.1
#

#
#

@<TRIPOS>MOLECULE
Molecule Name
120 135
SMALL
NO_CHARGES


@<TRIPOS>ATOM
1 C1     6.5317    -1.7891    -0.1319 C
2 C2     5.1735    -1.8878    -0.0172 C
3 C3     6.2743     0.6194    -0.3873 C
4 C4     7.1266    -0.5060    -0.3300 C
5 C5     4.8928     0.5748    -0.2813 C
6 C6     4.3323    -0.7343    -0.0911 C
7 C7     2.9511    -0.7793     0.0150 C
8 C8     2.0980     0.3441    -0.0430 C
9 C9     2.6924     1.6262    -0.2390 C
10 C10     4.0516     1.7267    -0.3539 C
11 H11     7.1565    -2.6707    -0.0997 H
12 H12     4.7069    -2.8566     0.1318 H
13 H13     2.0655     2.5061    -0.2699 H
14 H14     4.5167     2.6964    -0.5016 H
15 C15     0.9140    -1.6349     0.1823 C
16 O16     0.1041    -2.5086     0.3401 O
17 C17     8.4542    -0.0079    -0.4090 C
18 C18     8.3149     1.4654    -0.5505 C
19 O19     9.1281     2.3388    -0.7045 O
20 C20     0.7671    -0.1585     0.0371 C
21 C21    15.5688    -2.1096    -0.0389 C
22 C22    14.2404    -2.2528    -0.2725 C
23 C23    15.1493     0.2620     0.6005 C
24 C24    16.0745    -0.8513     0.4008 C
25 C25    13.7755     0.1219     0.3715 C
26 C26    13.2995    -1.1718    -0.0911 C
27 C27    11.9312    -1.2997    -0.3323 C
28 C28    11.0065    -0.2072    -0.1421 C
29 C29    11.5006     1.0280     0.3375 C
30 C30    12.8361     1.1781     0.5806 C
31 H31    16.2536    -2.9399    -0.1832 H
32 H32    13.8819    -3.2153    -0.6054 H
33 H33    10.8243     1.8582     0.4844 H
34 H34    13.1817     2.1356     0.9432 H
35 C35     9.8469    -2.0926    -0.8079 C
36 N36    11.2063    -2.4033    -0.7479 N
37 O37     8.9975    -2.8898    -1.1691 O
38 C38    11.6425    -3.7239    -1.1371 C
39 H39    12.3429    -3.6798    -1.9768 H
40 H40    12.0950    -4.2625    -0.2983 H
41 H41    10.7462    -4.2613    -1.4546 H
42 N42    15.8865     1.3336     1.0182 N
43 C43    17.3380    -0.4303     0.7018 C
44 C44     9.6997    -0.6662    -0.4185 C
45 C45    15.4893     2.6836     1.3390 C
46 H46    15.0163     3.1747     0.4827 H
47 H47    14.8169     2.7099     2.2026 H
48 H48    16.4068     3.2201     1.5925 H
49 C49    -0.4825     0.4771     0.0514 C
50 C50    -1.7932    -0.0270    -0.1446 C
51 C51    -0.6562     1.9234     0.3809 C
52 C52    -2.2843    -1.2603    -0.6390 C
53 C53    -2.7257     1.0281     0.1083 C
54 N54    -2.0177     2.2004     0.3486 N
55 O55     0.1929     2.7527     0.6639 O
56 C56    -3.6296    -1.4640    -0.7447 C
57 H57    -1.5947    -2.0343    -0.9447 H
58 C58    -4.1114     0.8072     0.1361 C
59 C59    -2.5233     3.5675     0.3614 C
60 C60    -4.5817    -0.4950    -0.2940 C
61 H61    -3.9686    -2.3822    -1.2035 H
62 C62    -5.0623     1.7778     0.5919 C
63 H63    -3.4805     3.5706    -0.1605 H
64 H64    -2.6888     3.9099     1.3900 H
65 C65    -5.9691    -0.7149    -0.2696 C
66 C66    -6.4063     1.5757     0.4914 C
67 H67    -4.7189     2.6928     1.0543 H
68 C68    -6.9002     0.3433    -0.0076 C
69 N69    -6.6819    -1.8790    -0.5184 N
70 H70    -7.0955     2.3473     0.8054 H
71 C71    -8.2069    -0.1540    -0.2000 C
72 C72    -8.0454    -1.5922    -0.5444 C
73 C73    -6.1798    -3.2464    -0.5652 C
74 C74    -9.4594     0.4928    -0.1673 C
75 O75    -8.9014    -2.4133    -0.8337 O
76 H76    -5.9970    -3.5568    -1.6012 H
77 H77    -5.2318    -3.2687    -0.0270 H
78 C78   -10.7768    -0.0019    -0.0398 C
79 C79    -9.6009     1.9631    -0.3453 C
80 C80   -11.3649    -1.2805     0.2002 C
81 C81   -11.6403     1.1271    -0.1007 C
82 O82    -8.7913     2.8279    -0.5445 O
83 C83   -12.7187    -1.3772     0.3545 C
84 H84   -10.7364    -2.1598     0.2302 H
85 C85   -13.0087     1.0832     0.0435 C
86 C86   -13.5688    -0.2274     0.2782 C
87 H87   -13.1808    -2.3428     0.5351 H
88 C88   -13.8438     2.2535    -0.0278 C
89 C89   -14.9390    -0.2731     0.4220 C
90 C90   -15.1938     2.1702     0.1189 C
91 H91   -13.3632     3.2108    -0.2057 H
92 C92   -15.7871     0.8869     0.3510 C
93 H93   -15.8211     3.0544     0.0627 H
94 C94   -17.0706     0.4404     0.5417 C
95 C95   -17.0260    -0.9977     0.7331 C
96 O96   -17.8752    -1.8250     0.9323 O
97 C97    -7.0624    -4.2766     0.1356 C
98 H98    -7.4383    -3.8737     1.0909 H
99 H99    -7.9253    -4.5663    -0.4742 H
100 C100    -6.9022    -6.4824     0.9044 C
101 H101    -7.3508    -6.2353     1.8791 H
102 H102    -7.6974    -6.8322     0.2285 H
103 H103    -6.1697    -7.2810     1.0408 H
104 C104    -1.6545     4.5754    -0.3876 C
105 H105    -0.7824     4.8862     0.1984 H
106 H106    -1.2933     4.1404    -1.3347 H
107 C107    -1.8297     6.7534    -1.2287 C
108 H108    -1.0238     7.1267    -0.5784 H
109 H109    -1.3969     6.4734    -2.2018 H
110 H110    -2.5653     7.5464    -1.3804 H
111 O111    -2.5046     5.6704    -0.6382 O
112 O112    -6.2168    -5.3805     0.3625 O
113 O113     6.9636     1.7782    -0.5370 O
114 O114     2.2654    -1.9409     0.1681 O
115 O115   -10.9531     2.2792    -0.2981 O
116 O116   -15.6583    -1.3848     0.6473 O
117 C117    17.2624     0.9669     1.1003 C
118 O118    18.1373     1.7418     1.4459 O
119 H119    18.2638    -0.9880     0.6682 H
120 H120   -17.9945     1.0016     0.5598 H
@<TRIPOS>BOND
1 1 2 2
2 1 4 Ar
3 1 11 1
4 2 6 Ar
5 2 12 1
6 3 4 Ar
7 3 5 Ar
8 3 113 1
9 4 17 Ar
10 5 6 Ar
11 5 10 Ar
12 6 7 2
13 7 8 Ar
14 7 114 1
15 8 9 Ar
16 8 20 Ar
17 9 10 2
18 9 13 1
19 10 14 1
20 15 16 2
21 15 20 1
22 15 114 1
23 17 18 1
24 17 44 Ar
25 18 19 2
26 18 113 1
27 20 49 Ar
28 21 22 2
29 21 24 Ar
30 21 31 1
31 22 26 Ar
32 22 32 1
33 23 24 1
34 23 25 Ar
35 23 42 Ar
36 24 43 2
37 25 26 1
38 25 30 Ar
39 26 27 Ar
40 27 28 Ar
41 27 36 1
42 28 29 Ar
43 28 44 Ar
44 29 30 2
45 29 33 1
46 30 34 1
47 35 36 1
48 35 37 2
49 35 44 1
50 36 38 1
51 38 39 1
52 38 40 1
53 38 41 1
54 42 45 1
55 42 117 1
56 43 117 1
57 43 119 1
58 45 46 1
59 45 47 1
60 45 48 1
61 49 50 Ar
62 49 51 1
63 50 52 Ar
64 50 53 Ar
65 51 54 1
66 51 55 2
67 52 56 2
68 52 57 1
69 53 54 1
70 53 58 Ar
71 54 59 1
72 56 60 Ar
73 56 61 1
74 58 60 1
75 58 62 Ar
76 59 63 1
77 59 64 1
78 59 104 1
79 60 65 Ar
80 62 66 2
81 62 67 1
82 65 68 Ar
83 65 69 1
84 66 68 Ar
85 66 70 1
86 68 71 Ar
87 69 72 1
88 69 73 1
89 71 72 1
90 71 74 Ar
91 72 75 2
92 73 76 1
93 73 77 1
94 73 97 1
95 74 78 Ar
96 74 79 1
97 78 80 Ar
98 78 81 Ar
99 79 82 2
100 79 115 1
101 80 83 2
102 80 84 1
103 81 85 2
104 81 115 1
105 83 86 Ar
106 83 87 1
107 85 86 Ar
108 85 88 Ar
109 86 89 2
110 88 90 2
111 88 91 1
112 89 92 Ar
113 89 116 Ar
114 90 92 Ar
115 90 93 1
116 92 94 2
117 94 95 1
118 94 120 1
119 95 96 2
120 95 116 1
121 97 98 1
122 97 99 1
123 97 112 1
124 100 101 1
125 100 102 1
126 100 103 1
127 100 112 1
128 104 105 1
129 104 106 1
130 104 111 1
131 107 108 1
132 107 109 1
133 107 110 1
134 107 111 1
135 117 118 2
