# P-50
# Created by GaussView 6.1.1
#

#
#

@<TRIPOS>MOLECULE
Molecule Name
108 121
SMALL
NO_CHARGES


@<TRIPOS>ATOM
1 C1    -4.4055     1.3084     0.3786 C
2 C2    -3.0543     1.1859     0.5982 C
3 C3    -4.2699    -0.9582    -0.4424 C
4 C4    -5.0537     0.1846    -0.1673 C
5 C5    -2.9190    -1.0811    -0.2219 C
6 C6    -2.2709     0.0424     0.3249 C
7 H7    -4.9281     2.2303     0.5881 H
8 C8    -6.4226    -0.1796    -0.4717 C
9 C9    -6.3277    -1.5888    -0.9902 C
10 O10    -7.1671    -2.3193    -1.4459 O
11 C11   -13.4079     2.1864     0.2239 C
12 C12   -12.0451     2.2923     0.1514 C
13 C13   -13.2356    -0.1781    -0.3239 C
14 C14   -14.0377     0.9494    -0.0431 C
15 C15   -11.8205    -0.1189    -0.3479 C
16 C16   -11.2162     1.1777    -0.1558 C
17 C17    -9.8042     1.2479    -0.2458 C
18 C18    -8.9978     0.1038    -0.4311 C
19 C19    -9.6195    -1.1616    -0.5300 C
20 C20   -10.9847    -1.2592    -0.5054 C
21 H21   -14.0048     3.0555     0.4567 H
22 H22   -11.6045     3.2565     0.3556 H
23 H23    -9.0177    -2.0493    -0.6547 H
24 H24   -11.4197    -2.2435    -0.5907 H
25 C25    -7.6608     2.0051    -0.1781 C
26 N26    -8.9914     2.3739    -0.1238 N
27 O27    -6.7401     2.8037    -0.1375 O
28 C28    -9.3365     3.7790    -0.1172 C
29 H29   -10.0288     4.0129    -0.9304 H
30 H30    -9.7657     4.0884     0.8409 H
31 H31    -8.4047     4.3279    -0.2689 H
32 N32   -14.0507    -1.2942    -0.5068 N
33 C33   -15.4171     0.5184     0.0084 C
34 C34    -7.6126     0.5151    -0.3700 C
35 H35    -2.3973    -2.0034    -0.4309 H
36 C36    -0.9956     1.8180     1.1417 C
37 C37    -0.9019     0.4065     0.6287 C
38 O38    -0.1554     2.5503     1.5925 O
39 O39    -2.3028     2.2168     1.0968 O
40 O40    -5.0210    -1.9880    -0.9440 O
41 C41   -13.7287    -2.6154    -1.0010 C
42 H42   -13.1187    -2.5537    -1.9061 H
43 H43   -13.2174    -3.2196    -0.2451 H
44 H44   -14.6791    -3.0973    -1.2399 H
45 C45     0.2864    -0.2920     0.5340 C
46 C46     1.6724     0.1151     0.5910 C
47 C47     0.3301    -1.7819     0.3596 C
48 C48     2.2893     1.3839     0.6665 C
49 C49     2.4789    -1.0315     0.4189 C
50 N50     1.6614    -2.1609     0.3038 N
51 O51    -0.5960    -2.5739     0.3298 O
52 C52     3.6536     1.4886     0.6411 C
53 H53     1.6842     2.2717     0.7732 H
54 C54     3.8914    -0.9514     0.3223 C
55 C55     1.9752    -3.5796     0.3394 C
56 C56     4.4938     0.3488     0.5056 C
57 H57     4.0774     2.4796     0.7048 H
58 C58     4.7259    -2.0622     0.0202 C
59 H59     1.0300    -4.0919     0.1433 H
60 H60     2.6556    -3.8438    -0.4736 H
61 C61     5.9103     0.4102     0.4895 C
62 C62     6.0875    -1.9535    -0.0585 C
63 H63     4.2898    -3.0294    -0.1758 H
64 C64     6.7144    -0.7153     0.2061 C
65 N65     6.7293     1.5262     0.6756 N
66 H66     6.6859    -2.8217    -0.2904 H
67 C67     8.0944    -0.2856     0.1512 C
68 C68     8.0516     1.1812     0.4708 C
69 C69     6.4332     2.8339     1.2326 C
70 C70     9.2772    -0.9557    -0.0958 C
71 O71     8.9732     1.9670     0.6140 O
72 H72     5.5843     2.7626     1.9147 H
73 H73     7.3054     3.1337     1.8203 H
74 C74    10.6166    -0.4872    -0.3886 C
75 C75     9.4003    -2.4551    -0.0850 C
76 C76    11.2266     0.7654    -0.5886 C
77 C77    11.4068    -1.6421    -0.5806 C
78 O78     8.5968    -3.3108     0.1773 O
79 O79    10.6910    -2.7933    -0.3815 O
80 C80    12.5498     0.7468    -0.9596 C
81 H81    10.6996     1.6950    -0.4309 H
82 C82    12.7301    -1.6609    -0.9514 C
83 C83    13.3399    -0.4084    -1.1524 C
84 O84    13.2655     1.8977    -1.1577 O
85 H85    13.2574    -2.5906    -1.1070 H
86 C86    14.6795     0.0603    -1.4449 C
87 C87    14.5570     1.5595    -1.4538 C
88 O88    15.3606     2.4152    -1.7148 O
89 C89   -15.3744    -0.9500    -0.3109 C
90 O90   -16.2997    -1.7315    -0.4524 O
91 C91     6.1847     3.8833     0.1565 C
92 H92     7.1202     4.0729    -0.3940 H
93 H93     5.4351     3.5332    -0.5740 H
94 C94     5.5637     6.1306    -0.0629 C
95 H95     5.2143     6.9718     0.5394 H
96 H96     6.5097     6.4052    -0.5537 H
97 H97     4.8142     5.9057    -0.8373 H
98 C98     2.4909    -4.0263     1.7116 C
99 H99     1.7186    -3.8136     2.4586 H
100 H100     3.3998    -3.4738     1.9972 H
101 C101     3.9705    -5.8105     1.2404 C
102 H102     4.7946    -5.3005     1.7609 H
103 H103     4.0526    -6.8862     1.4110 H
104 H104     4.0628    -5.6234     0.1599 H
105 O105     5.7396     5.0412     0.8106 O
106 O106     2.7189    -5.4119     1.7508 O
107 H107   -16.2790     1.1140     0.2260 H
108 H108    15.5573    -0.5271    -1.6159 H
@<TRIPOS>BOND
1 1 2 2
2 1 4 Ar
3 1 7 1
4 2 6 Ar
5 2 39 1
6 3 4 Ar
7 3 5 2
8 3 40 1
9 4 8 1
10 5 6 Ar
11 5 35 1
12 6 37 1
13 8 9 1
14 8 34 2
15 9 10 2
16 9 40 1
17 11 12 2
18 11 14 Ar
19 11 21 1
20 12 16 Ar
21 12 22 1
22 13 14 Ar
23 13 15 Ar
24 13 32 1
25 14 33 Ar
26 15 16 Ar
27 15 20 Ar
28 16 17 Ar
29 17 18 Ar
30 17 26 1
31 18 19 Ar
32 18 34 Ar
33 19 20 2
34 19 23 1
35 20 24 1
36 25 26 1
37 25 27 2
38 25 34 1
39 26 28 1
40 28 29 1
41 28 30 1
42 28 31 1
43 32 41 1
44 32 89 Ar
45 33 89 1
46 33 107 1
47 36 37 1
48 36 38 2
49 36 39 1
50 37 45 2
51 41 42 1
52 41 43 1
53 41 44 1
54 45 46 Ar
55 45 47 1
56 46 48 Ar
57 46 49 Ar
58 47 50 1
59 47 51 2
60 48 52 2
61 48 53 1
62 49 50 1
63 49 54 Ar
64 50 55 1
65 52 56 Ar
66 52 57 1
67 54 56 Ar
68 54 58 Ar
69 55 59 1
70 55 60 1
71 55 98 1
72 56 61 Ar
73 58 62 2
74 58 63 1
75 61 64 Ar
76 61 65 1
77 62 64 Ar
78 62 66 1
79 64 67 Ar
80 65 68 1
81 65 69 1
82 67 68 1
83 67 70 2
84 68 71 2
85 69 72 1
86 69 73 1
87 69 91 1
88 70 74 1
89 70 75 1
90 74 76 Ar
91 74 77 Ar
92 75 78 2
93 75 79 1
94 76 80 2
95 76 81 1
96 77 79 1
97 77 82 2
98 80 83 Ar
99 80 84 1
100 82 83 Ar
101 82 85 1
102 83 86 1
103 84 87 1
104 86 87 1
105 86 108 1
106 87 88 2
107 89 90 2
108 91 92 1
109 91 93 1
110 91 105 1
111 94 95 1
112 94 96 1
113 94 97 1
114 94 105 1
115 98 99 1
116 98 100 1
117 98 106 1
118 101 102 1
119 101 103 1
120 101 104 1
121 101 106 1
