# P-75
# Created by GaussView 6.1.1
#

#
#

@<TRIPOS>MOLECULE
Molecule Name
102 114
SMALL
NO_CHARGES


@<TRIPOS>ATOM
1 C1    -5.2677    -1.2206    -1.2230 C
2 C2    -3.9122    -1.1698    -1.3015 C
3 C3    -5.0960     1.1015    -0.4399 C
4 C4    -5.9148    -0.0314    -0.7801 C
5 C5    -3.7402     1.1536    -0.5243 C
6 C6    -3.0950    -0.0295    -0.9828 C
7 H7    -5.8236    -2.1029    -1.5087 H
8 C8    -7.2380     0.3289    -0.4979 C
9 C9    -7.1768     1.7318    -0.0038 C
10 O10    -8.0494     2.4902     0.3321 O
11 H11    -3.1840     2.0485    -0.2826 H
12 C12    -1.8236    -1.8455    -1.6223 C
13 C13    -1.7608    -0.4314    -1.1481 C
14 O14    -0.9509    -2.6029    -1.9534 O
15 O15    -3.1455    -2.2273    -1.6911 O
16 O16    -5.8600     2.1399     0.0009 O
17 C17    -0.5363     0.2646    -0.9968 C
18 C18     0.7756    -0.2055    -0.8256 C
19 C19    -0.4294     1.7448    -1.0515 C
20 C20     1.3086    -1.4897    -0.5418 C
21 C21     1.6767     0.9208    -0.8689 C
22 N22     0.9284     2.0786    -0.9871 N
23 O23    -1.3084     2.5864    -1.1313 O
24 C24     2.6500    -1.6437    -0.3623 C
25 H25     0.6501    -2.3433    -0.4623 H
26 C26     3.0634     0.7509    -0.8787 C
27 C27     1.2505     3.4429    -0.5840 C
28 C28     3.5788    -0.5659    -0.5558 C
29 H29     3.0094    -2.6307    -0.1105 H
30 C30     3.9765     1.7928    -1.2481 C
31 H31     2.2983     3.6532    -0.7790 H
32 H32     0.6530     4.1156    -1.2069 H
33 C33     4.9692    -0.7076    -0.4810 C
34 C34     5.3262     1.6200    -1.2352 C
35 H35     3.5874     2.7248    -1.6367 H
36 C36     5.8709     0.3766    -0.8173 C
37 N37     5.7363    -1.7936    -0.1105 N
38 H38     5.9842     2.4053    -1.5815 H
39 C39     7.1866    -0.0534    -0.6145 C
40 C40     7.0952    -1.4519    -0.1439 C
41 C41     5.3592    -3.1263     0.3143 C
42 C42     8.4335     0.6067    -0.8167 C
43 O43     7.9854    -2.2339     0.1465 O
44 H44     4.6299    -3.5581    -0.3754 H
45 H45     6.2664    -3.7315     0.2457 H
46 C46     9.6794     0.4060    -0.2286 C
47 C47     8.6264     1.6794    -1.8321 C
48 C48    10.1621    -0.4331     0.8239 C
49 C49    10.5853     1.3581    -0.8418 C
50 O50     7.8637     2.1654    -2.6226 O
51 O51     9.9471     2.0876    -1.7953 O
52 C52    11.4629    -0.2701     1.1683 C
53 H53     9.5314    -1.1785     1.2886 H
54 C54    11.8861     1.5253    -0.5088 C
55 C55    12.3695     0.6794     0.5402 C
56 O56    12.1079    -0.9641     2.1360 O
57 H57    12.5181     2.2580    -0.9981 H
58 C58    13.5745     0.5323     1.1589 C
59 C59     4.8391    -3.1569     1.7466 C
60 H60     5.6681    -2.9517     2.4440 H
61 H61     4.0694    -2.3833     1.9085 H
62 C62     3.8598    -4.6306     3.2799 C
63 H63     3.4609    -5.6454     3.3378 H
64 H64     4.6857    -4.5254     3.9996 H
65 H65     3.0660    -3.9146     3.5429 H
66 C66     0.9103     3.7007     0.8851 C
67 H67    -0.1583     3.5336     1.0455 H
68 H68     1.1258     4.7586     1.1112 H
69 C69     2.9133     3.2208     2.0503 C
70 H70     2.9665     4.2538     2.4269 H
71 H71     3.2795     2.5416     2.8234 H
72 H72     3.5635     3.1271     1.1682 H
73 O73     4.3062    -4.4363     1.9592 O
74 O74     1.5819     2.8493     1.7789 O
75 C75    -8.4579    -0.3885    -0.6491 C
76 C76    -9.6949    -0.2378    -0.0209 C
77 C77    -8.6072    -1.5119    -1.6327 C
78 C78   -10.5983    -1.2518    -0.5768 C
79 C79   -10.1637     0.6144     1.0183 C
80 O80    -7.7887    -1.9591    -2.4163 O
81 C81   -11.8839    -1.4219    -0.1735 C
82 C82   -11.4540     0.4499     1.4328 C
83 H83    -9.5243     1.3856     1.4259 H
84 C84   -12.3605    -0.5547     0.8621 C
85 H85   -12.5321    -2.1805    -0.6004 H
86 C86   -13.5571    -0.4377     1.4974 C
87 N87    -9.9103    -1.9676    -1.5311 N
88 N88   -12.1402     1.1418     2.3959 N
89 C89   -10.4511    -3.0296    -2.3376 C
90 H90   -10.7863    -3.8631    -1.7095 H
91 H91   -11.2940    -2.6701    -2.9389 H
92 H92    -9.6565    -3.3753    -3.0017 H
93 C93   -11.6267     2.2264     3.1922 C
94 H94   -10.7873     1.8931     3.8129 H
95 H95   -11.2954     3.0542     2.5557 H
96 H96   -12.4378     2.5684     3.8385 H
97 C97   -13.4509     0.6486     2.4928 C
98 O98   -14.2924     1.0724     3.2633 O
99 C99    13.4359    -0.5060     2.1790 C
100 O100    14.2228    -0.9647     2.9618 O
101 H101   -14.4664    -1.0048     1.3488 H
102 H102    14.5055     1.0532     0.9820 H
@<TRIPOS>BOND
1 1 2 2
2 1 4 Ar
3 1 7 1
4 2 6 Ar
5 2 15 1
6 3 4 Ar
7 3 5 2
8 3 16 1
9 4 8 Ar
10 5 6 Ar
11 5 11 1
12 6 13 Ar
13 8 9 1
14 8 75 Ar
15 9 10 2
16 9 16 1
17 12 13 1
18 12 14 2
19 12 15 1
20 13 17 Ar
21 17 18 Ar
22 17 19 1
23 18 20 Ar
24 18 21 Ar
25 19 22 1
26 19 23 2
27 20 24 2
28 20 25 1
29 21 22 1
30 21 26 Ar
31 22 27 1
32 24 28 Ar
33 24 29 1
34 26 28 1
35 26 30 Ar
36 27 31 1
37 27 32 1
38 27 66 1
39 28 33 Ar
40 30 34 2
41 30 35 1
42 33 36 1
43 33 37 Ar
44 34 36 Ar
45 34 38 1
46 36 39 Ar
47 37 40 1
48 37 41 1
49 39 40 1
50 39 42 Ar
51 40 43 2
52 41 44 1
53 41 45 1
54 41 59 1
55 42 46 Ar
56 42 47 1
57 46 48 Ar
58 46 49 1
59 47 50 2
60 47 51 1
61 48 52 2
62 48 53 1
63 49 51 1
64 49 54 2
65 52 55 1
66 52 56 1
67 54 55 Ar
68 54 57 1
69 55 58 2
70 56 99 1
71 58 99 1
72 58 102 1
73 59 60 1
74 59 61 1
75 59 73 1
76 62 63 1
77 62 64 1
78 62 65 1
79 62 73 1
80 66 67 1
81 66 68 1
82 66 74 1
83 69 70 1
84 69 71 1
85 69 72 1
86 69 74 1
87 75 76 Ar
88 75 77 1
89 76 78 1
90 76 79 Ar
91 77 80 2
92 77 87 1
93 78 81 2
94 78 87 Ar
95 79 82 2
96 79 83 1
97 81 84 Ar
98 81 85 1
99 82 84 1
100 82 88 Ar
101 84 86 2
102 86 97 1
103 86 101 1
104 87 89 1
105 88 93 1
106 88 97 1
107 89 90 1
108 89 91 1
109 89 92 1
110 93 94 1
111 93 95 1
112 93 96 1
113 97 98 2
114 99 100 2
