# P-DPP-DCNPz
# Created by GaussView 6.1.1
#

#
#

@<TRIPOS>MOLECULE
Molecule Name
44 48
SMALL
NO_CHARGES


@<TRIPOS>ATOM
1 C1    -2.8954    -1.8615     0.2519 C
2 C2    -0.6732    -1.1935     0.0734 C
3 C3    -1.4638    -0.0550     0.0113 C
4 C4    -2.8255    -0.4274     0.0942 C
5 C5    -1.3968     1.3736    -0.2097 C
6 C6    -3.6198     0.6993    -0.0971 C
7 N7    -2.7638     1.7759    -0.2744 N
8 N8    -1.5315    -2.2755     0.2229 N
9 O9    -0.4657     2.1569    -0.3039 O
10 O10    -3.8252    -2.6399     0.4105 O
11 C11    -1.2058    -3.6558     0.4908 C
12 H12    -2.1237    -4.1257     0.8525 H
13 H13    -0.8879    -4.1843    -0.4150 H
14 H14    -0.4286    -3.7333     1.2566 H
15 C15    -3.0832     3.1803    -0.3674 C
16 H16    -2.1454     3.7213    -0.2197 H
17 H17    -3.4773     3.4433    -1.3553 H
18 H18    -3.7987     3.4710     0.4071 H
19 C19    -5.0524     0.7926    -0.1331 C
20 C20    -5.8669     1.8241    -0.5853 C
21 S21    -6.0270    -0.5458     0.4205 S
22 C22    -7.2425     1.5360    -0.4756 C
23 H23    -5.4923     2.7466    -1.0069 H
24 C24    -7.4713     0.2926     0.0625 C
25 C25     0.7570    -1.3007    -0.0249 C
26 C26     1.5358    -2.4239    -0.2922 C
27 S27     1.7495     0.1112     0.1661 S
28 C28     2.9084    -2.1486    -0.3351 C
29 H29     1.1329    -3.4093    -0.4817 H
30 C30     3.1952    -0.8127    -0.0943 C
31 H31     3.6530    -2.9061    -0.5429 H
32 C32     4.4582    -0.1047    -0.0399 C
33 C33     5.7517    -0.6737    -0.2152 C
34 C34     5.4847     1.9263     0.2675 C
35 C35     6.7524     1.3505     0.0865 C
36 N36     4.3692     1.2133     0.2048 N
37 N37     6.8690     0.0544    -0.1517 N
38 C38     5.3716     3.3352     0.5327 C
39 N39     5.3344     4.4751     0.7457 N
40 H40    -8.0308     2.2137    -0.7838 H
41 C41     5.9586    -2.0692    -0.4716 C
42 N42     6.1325    -3.1984    -0.6787 N
43 H43    -8.4269    -0.1780     0.2584 H
44 H44     7.6618     1.9424     0.1370 H
@<TRIPOS>BOND
1 1 4 Ar
2 1 8 1
3 1 10 2
4 2 3 Ar
5 2 8 1
6 2 25 Ar
7 3 4 Ar
8 3 5 Ar
9 4 6 Ar
10 5 7 1
11 5 9 2
12 6 7 1
13 6 19 Ar
14 7 15 1
15 8 11 1
16 11 12 1
17 11 13 1
18 11 14 1
19 15 16 1
20 15 17 1
21 15 18 1
22 19 20 Ar
23 19 21 1
24 20 22 Ar
25 20 23 1
26 21 24 1
27 22 24 2
28 22 40 1
29 24 43 1
30 25 26 Ar
31 25 27 1
32 26 28 Ar
33 26 29 1
34 27 30 1
35 28 30 Ar
36 28 31 1
37 30 32 1
38 32 33 Ar
39 32 36 Ar
40 33 37 Ar
41 33 41 Ar
42 34 35 Ar
43 34 36 Ar
44 34 38 Ar
45 35 37 2
46 35 44 1
47 38 39 3
48 41 42 3
