# P-DPP-CNPz
# Created by GaussView 6.1.1
#

#
#

@<TRIPOS>MOLECULE
Molecule Name
43 47
SMALL
NO_CHARGES


@<TRIPOS>ATOM
1 C1    -2.6993    -1.8378    -0.1988 C
2 C2    -0.4481    -1.2773    -0.0030 C
3 C3    -1.1803    -0.0995     0.0160 C
4 C4    -2.5594    -0.4056    -0.0789 C
5 C5    -1.0442     1.3280     0.2032 C
6 C6    -3.2975     0.7631     0.0722 C
7 N7    -2.3904     1.7997     0.2360 N
8 N8    -1.3583    -2.3187    -0.1364 N
9 O9    -0.0768     2.0672     0.2937 O
10 O10    -3.6640    -2.5740    -0.3521 O
11 C11    -1.0980    -3.7188    -0.3677 C
12 H12    -0.8244    -4.2425     0.5555 H
13 H13    -2.0313    -4.1506    -0.7374 H
14 H14    -0.3105    -3.8521    -1.1152 H
15 C15    -2.6402     3.2201     0.2846 C
16 H16    -3.0279     3.5326     1.2606 H
17 H17    -1.6756     3.7094     0.1291 H
18 H18    -3.3354     3.5222    -0.5041 H
19 C19    -4.7246     0.9307     0.0851 C
20 C20    -5.4903     2.0084     0.5124 C
21 S21    -5.7592    -0.3625    -0.4657 S
22 C22    -6.8780     1.7904     0.3863 C
23 H23    -5.0736     2.9155     0.9283 H
24 C24    -7.1639     0.5539    -0.1394 C
25 C25     0.9733    -1.4569     0.1167 C
26 C26     1.6888    -2.6067     0.4373 C
27 S27     2.0450    -0.1062    -0.1178 S
28 C28     3.0748    -2.3955     0.4848 C
29 H29     1.2310    -3.5607     0.6606 H
30 C30     3.4294    -1.0897     0.1952 C
31 H31     3.7851    -3.1776     0.7301 H
32 C32     4.7562    -0.5006     0.1387 C
33 C33     5.9273    -1.2467     0.3935 C
34 C34     6.0619     1.3302    -0.2215 C
35 H35     5.8759    -2.3029     0.6449 H
36 C36     7.2169     0.5834     0.0342 C
37 N37     4.8405     0.7980    -0.1710 N
38 N38     7.1377    -0.7114     0.3421 N
39 C39     6.1754     2.7250    -0.5546 C
40 N40     6.3176     3.8455    -0.8205 N
41 H41    -7.6341     2.5121     0.6748 H
42 H42    -8.1397     0.1305    -0.3432 H
43 H43     8.2039     1.0353    -0.0111 H
@<TRIPOS>BOND
1 1 4 Ar
2 1 8 1
3 1 10 2
4 2 3 Ar
5 2 8 1
6 2 25 Ar
7 3 4 Ar
8 3 5 Ar
9 4 6 Ar
10 5 7 1
11 5 9 2
12 6 7 1
13 6 19 Ar
14 7 15 1
15 8 11 1
16 11 12 1
17 11 13 1
18 11 14 1
19 15 16 1
20 15 17 1
21 15 18 1
22 19 20 Ar
23 19 21 1
24 20 22 Ar
25 20 23 1
26 21 24 1
27 22 24 2
28 22 41 1
29 24 42 1
30 25 26 Ar
31 25 27 1
32 26 28 Ar
33 26 29 1
34 27 30 1
35 28 30 2
36 28 31 1
37 30 32 1
38 32 33 Ar
39 32 37 Ar
40 33 35 1
41 33 38 Ar
42 34 36 Ar
43 34 37 Ar
44 34 39 Ar
45 36 38 Ar
46 36 43 1
47 39 40 3
