# P-FBDOPV-2T-C12
# Created by GaussView 6.1.1
#

#
#

@<TRIPOS>MOLECULE
Molecule Name
69 77
SMALL
NO_CHARGES


@<TRIPOS>ATOM
1 C1    -2.5631     1.3243    -0.0496 C
2 C2    -3.9355     1.3112    -0.1414 C
3 C3    -4.7647     0.1734    -0.0599 C
4 C4    -4.1376    -1.0708     0.1344 C
5 C5    -2.7652    -1.0584     0.2264 C
6 C6    -1.9359     0.0803     0.1442 C
7 H7    -2.0056     2.2472    -0.1047 H
8 H8    -4.6960    -1.9932     0.1897 H
9 C9    -0.5682    -0.4053     0.2400 C
10 C10    -5.9836     2.1500    -0.3177 C
11 C11    -6.1343     0.6589    -0.1526 C
12 C12    -0.7148    -1.8913     0.4045 C
13 O13    -4.6565     2.4653    -0.3084 O
14 O14    -2.0428    -2.2103     0.3941 O
15 O15    -6.8046     3.0146    -0.4738 O
16 O16     0.1083    -2.7560     0.5587 O
17 C17    -7.3570     0.0245    -0.1228 C
18 C18    -7.4860    -1.4826    -0.1529 C
19 C19     0.6582     0.2308     0.2095 C
20 C20     0.7892     1.7383     0.2322 C
21 N21    -8.8275    -1.7823    -0.1197 N
22 N22     2.1329     2.0381     0.1937 N
23 O23    -6.6110    -2.3300    -0.2259 O
24 O24    -0.0834     2.5871     0.3014 O
25 C25    -9.3194    -3.1415    -0.1597 C
26 H26    -8.4457    -3.7921    -0.2259 H
27 H27    -9.8856    -3.3781     0.7455 H
28 H28    -9.9594    -3.2971    -1.0326 H
29 C29     2.6200     3.3997     0.2275 C
30 H30     3.2604     3.5624     1.0987 H
31 H31     3.1816     3.6369    -0.6802 H
32 H32     1.7427     4.0456     0.2936 H
33 C33    -9.5749    -0.6185    -0.0600 C
34 C34    -8.7319     0.5233    -0.0719 C
35 C35     2.0224    -0.2641     0.1624 C
36 C36     2.8746     0.8709     0.1424 C
37 C37    -9.3209     1.7925     0.0132 C
38 C38   -10.7071     1.9081     0.0982 C
39 C39   -11.5263     0.7810     0.0982 C
40 C40   -10.9491    -0.4780     0.0209 C
41 C41     2.6275    -1.5305     0.0909 C
42 C42     4.2448     0.7350     0.0627 C
43 C43     4.0037    -1.6428     0.0099 C
44 C44     4.8644    -0.5233    -0.0105 C
45 H45   -11.1561     2.8945     0.1596 H
46 H46    -8.7041     2.6776    -0.0015 H
47 H47     2.0188    -2.4215     0.1195 H
48 H48     4.4354    -2.6366    -0.0212 H
49 F49     5.0118     1.8502     0.0440 F
50 C50     6.3023    -0.6914    -0.1066 C
51 C51     6.9804    -1.8753    -0.3394 C
52 S52     7.4487     0.6015     0.0899 S
53 H53     6.4777    -2.8209    -0.5115 H
54 C54     8.8016    -0.4544    -0.1554 C
55 C55    10.1306     0.1159    -0.1348 C
56 S56    11.5496    -0.8203     0.2466 S
57 C57    11.8701     1.6797    -0.2178 C
58 C58    12.5750     0.5500     0.1030 C
59 H59    12.3312     2.6504    -0.3634 H
60 F60   -11.7445    -1.5713     0.0310 F
61 C61     8.3869    -1.7647    -0.3693 C
62 C62    10.4819     1.4348    -0.3534 C
63 H63     9.7579     2.1972    -0.6225 H
64 C64     9.2850    -2.9366    -0.6290 C
65 H65    10.0592    -2.7019    -1.3678 H
66 H66     9.7948    -3.2711     0.2832 H
67 H67     8.7048    -3.7836    -1.0078 H
68 H68   -12.6075     0.8588     0.1589 H
69 H69    13.6418     0.4438     0.2521 H
@<TRIPOS>BOND
1 1 2 2
2 1 6 Ar
3 1 7 1
4 2 3 Ar
5 2 13 1
6 3 4 Ar
7 3 11 1
8 4 5 2
9 4 8 1
10 5 6 Ar
11 5 14 1
12 6 9 1
13 9 12 1
14 9 19 2
15 10 11 1
16 10 13 1
17 10 15 2
18 11 17 2
19 12 14 1
20 12 16 2
21 17 18 1
22 17 34 1
23 18 21 Ar
24 18 23 2
25 19 20 1
26 19 35 1
27 20 22 Ar
28 20 24 2
29 21 25 1
30 21 33 1
31 22 29 1
32 22 36 1
33 25 26 1
34 25 27 1
35 25 28 1
36 29 30 1
37 29 31 1
38 29 32 1
39 33 34 Ar
40 33 40 2
41 34 37 Ar
42 35 36 Ar
43 35 41 Ar
44 36 42 2
45 37 38 Ar
46 37 46 1
47 38 39 Ar
48 38 45 1
49 39 40 Ar
50 39 68 1
51 40 60 1
52 41 43 2
53 41 47 1
54 42 44 Ar
55 42 49 1
56 43 44 Ar
57 43 48 1
58 44 50 1
59 50 51 2
60 50 52 1
61 51 53 1
62 51 61 Ar
63 52 54 1
64 54 55 Ar
65 54 61 Ar
66 55 56 1
67 55 62 2
68 56 58 1
69 57 58 2
70 57 59 1
71 57 62 Ar
72 58 69 1
73 61 64 1
74 62 63 1
75 64 65 1
76 64 66 1
77 64 67 1
