# P-FBDOPV-F
# Created by GaussView 6.1.1
#

#
#

@<TRIPOS>MOLECULE
Molecule Name
79 88
SMALL
NO_CHARGES


@<TRIPOS>ATOM
1 C1    -2.9805     1.5346     0.0202 C
2 C2    -4.3451     1.3909     0.1212 C
3 C3    -5.0767     0.2073    -0.1064 C
4 C4    -4.3489    -0.9450    -0.4536 C
5 C5    -2.9838    -0.8028    -0.5501 C
6 C6    -2.2542     0.3855    -0.3393 C
7 H7    -2.5018     2.4862     0.1961 H
8 H8    -4.8296    -1.8918    -0.6478 H
9 C9    -0.8510     0.0387    -0.5176 C
10 C10    -6.4432     1.9964     0.5215 C
11 C11    -6.4730     0.5343     0.1530 C
12 C12    -0.8754    -1.4256    -0.8625 C
13 O13    -5.1540     2.4391     0.4758 O
14 O14    -2.1703    -1.8582    -0.8698 O
15 O15    -7.3296     2.7600     0.7990 O
16 O16     0.0136    -2.1893    -1.1344 O
17 C17    -7.6337    -0.2059     0.1017 C
18 C18    -7.6668    -1.6204    -0.4367 C
19 C19     0.3143     0.7712    -0.4294 C
20 C20     0.3143     2.2753    -0.2568 C
21 N21    -8.9666    -2.0610    -0.3593 N
22 N22     1.6260     2.6862    -0.2088 N
23 O23    -6.7572    -2.2926    -0.8943 O
24 O24    -0.6317     3.0428    -0.1951 O
25 C25    -9.3680    -3.3745    -0.8120 C
26 H26    -8.4716    -3.8639    -1.1969 H
27 H27    -9.7814    -3.9616     0.0128 H
28 H28   -10.1149    -3.2996    -1.6072 H
29 C29     1.9917     4.0800    -0.0821 C
30 H30     2.5649     4.2523     0.8327 H
31 H31     2.5832     4.4062    -0.9420 H
32 H32     1.0602     4.6474    -0.0431 H
33 C33    -9.7722    -1.0766     0.1872 C
34 C34    -9.0166     0.0885     0.4809 C
35 C35     1.7220     0.3975    -0.4751 C
36 C36     2.4705     1.5942    -0.3305 C
37 C37    -9.6703     1.1807     1.0682 C
38 C38   -11.0347     1.1059     1.3417 C
39 C39   -11.7691    -0.0389     1.0398 C
40 C40   -11.1270    -1.1255     0.4643 C
41 C41     2.4303    -0.8095    -0.5685 C
42 C42     3.8519     1.5764    -0.2989 C
43 C43     3.8175    -0.8030    -0.5274 C
44 C44     4.5703     0.3771    -0.3975 C
45 H45   -11.5345     1.9573     1.7930 H
46 H46    -9.1214     2.0811     1.2960 H
47 H47     1.8998    -1.7406    -0.6969 H
48 H48     4.3491    -1.7433    -0.6378 H
49 F49     4.5126     2.7441    -0.1267 F
50 F50   -11.8388    -2.2392     0.1805 F
51 C51     6.0430     0.3327    -0.3546 C
52 C52     6.6825    -0.7050     0.3490 C
53 C53     6.8292     1.2851    -1.0275 C
54 C54     8.0646    -0.7760     0.3710 C
55 H55     6.0816    -1.4298     0.8944 H
56 C56     8.2176     1.2106    -1.0159 C
57 H57     6.3445     2.0813    -1.5830 H
58 C58     8.8380     0.1786    -0.3126 C
59 H59     8.8033     1.9519    -1.5539 H
60 C60    10.2500    -0.1426    -0.1164 C
61 C61    10.3338    -1.2912     0.6907 C
62 C62    11.4041     0.4859    -0.5839 C
63 C63    11.5727    -1.8162     1.0329 C
64 C64    12.6448    -0.0458    -0.2370 C
65 H65    11.3430     1.3743    -1.2080 H
66 C66    12.7298    -1.1875     0.5647 C
67 H67    11.6514    -2.7043     1.6565 H
68 H68    13.5546     0.4307    -0.5927 H
69 C69     8.9507    -1.7911     1.0745 C
70 C70     8.7027    -3.2124     0.5470 C
71 H71     7.6813    -3.5376     0.7776 H
72 H72     8.8425    -3.2605    -0.5379 H
73 H73     9.3948    -3.9226     1.0143 H
74 C74     8.7451    -1.7511     2.5966 C
75 H75     9.4367    -2.4395     3.0963 H
76 H76     8.9175    -0.7446     2.9914 H
77 H77     7.7236    -2.0526     2.8567 H
78 H78   -12.8333    -0.1072     1.2438 H
79 H79    13.7051    -1.5897     0.8263 H
@<TRIPOS>BOND
1 1 2 2
2 1 6 Ar
3 1 7 1
4 2 3 Ar
5 2 13 1
6 3 4 Ar
7 3 11 1
8 4 5 2
9 4 8 1
10 5 6 Ar
11 5 14 1
12 6 9 1
13 9 12 1
14 9 19 2
15 10 11 1
16 10 13 1
17 10 15 2
18 11 17 2
19 12 14 1
20 12 16 2
21 17 18 1
22 17 34 1
23 18 21 Ar
24 18 23 2
25 19 20 1
26 19 35 1
27 20 22 Ar
28 20 24 2
29 21 25 1
30 21 33 1
31 22 29 1
32 22 36 1
33 25 26 1
34 25 27 1
35 25 28 1
36 29 30 1
37 29 31 1
38 29 32 1
39 33 34 Ar
40 33 40 2
41 34 37 Ar
42 35 36 Ar
43 35 41 Ar
44 36 42 2
45 37 38 Ar
46 37 46 1
47 38 39 Ar
48 38 45 1
49 39 40 Ar
50 39 78 1
51 40 50 1
52 41 43 Ar
53 41 47 1
54 42 44 Ar
55 42 49 1
56 43 44 Ar
57 43 48 1
58 44 51 1
59 51 52 Ar
60 51 53 Ar
61 52 54 2
62 52 55 1
63 53 56 Ar
64 53 57 1
65 54 58 Ar
66 54 69 1
67 56 58 Ar
68 56 59 1
69 58 60 1
70 60 61 Ar
71 60 62 Ar
72 61 63 Ar
73 61 69 1
74 62 64 Ar
75 62 65 1
76 63 66 Ar
77 63 67 1
78 64 66 Ar
79 64 68 1
80 66 79 1
81 69 70 1
82 69 74 1
83 70 71 1
84 70 72 1
85 70 73 1
86 74 75 1
87 74 76 1
88 74 77 1
