# P-g7NC2N
# Created by GaussView 6.1.1
#

#
#

@<TRIPOS>MOLECULE
Molecule Name
82 89
SMALL
NO_CHARGES


@<TRIPOS>ATOM
1 C1    -3.2063     0.9333    -0.4978 C
2 C2    -4.5567     0.8640    -0.6457 C
3 C3    -3.2388    -1.3608     0.4263 C
4 C4    -2.5007    -0.1660     0.0576 C
5 C5    -4.6150    -1.4655     0.2423 C
6 C6    -5.3162    -0.2988    -0.2837 C
7 C7    -6.7010    -0.3824    -0.4223 C
8 C8    -7.4237    -1.6135    -0.1007 C
9 C9    -6.7014    -2.7529     0.3608 C
10 C10    -5.3585    -2.6709     0.5254 C
11 H11    -2.6687     1.8338    -0.7631 H
12 H12    -5.0665     1.7224    -1.0584 H
13 H13    -7.2351    -3.6756     0.5687 H
14 H14    -4.8304    -3.5523     0.8572 H
15 C15    -8.9286    -0.0583    -0.8188 C
16 N16    -7.6342     0.5275    -0.8576 N
17 O17    -9.9435     0.5389    -1.1403 O
18 C18    -7.5135     1.9291    -1.2181 C
19 H19    -6.7259     2.0496    -1.9682 H
20 H20    -8.4603     2.1700    -1.7107 H
21 N21    -2.3262    -2.2750     0.9220 N
22 C22    -1.1409    -0.3834     0.2820 C
23 C23    -1.0324    -1.7460     0.8501 C
24 O24    -0.0480    -2.3466     1.2523 O
25 C25    -8.7521    -1.4214    -0.3420 C
26 C26     5.5422     2.6082    -0.9476 C
27 C27     4.2247     2.6225    -0.6274 C
28 C28     5.4846     0.1192    -0.8543 C
29 C29     6.2196     1.3601    -1.0807 C
30 C30     4.1061     0.1190    -0.6579 C
31 C31     3.4501     1.4110    -0.4788 C
32 C32     2.0863     1.4013    -0.2000 C
33 C33     1.3197     0.1708    -0.1437 C
34 C34     1.9673    -1.0572    -0.4415 C
35 C35     3.3052    -1.0738    -0.6831 C
36 H36     6.0918     3.5342    -1.0878 H
37 H37     3.7434     3.5822    -0.5081 H
38 H38     1.3938    -1.9742    -0.4630 H
39 H39     3.7648    -2.0159    -0.9502 H
40 C40    -0.0884     1.9480     0.2311 C
41 N41     1.2068     2.4465     0.0334 N
42 O42    -1.0421     2.6641     0.4928 O
43 C43     1.4343     3.8689     0.1690 C
44 H44     2.0040     4.2567    -0.6798 H
45 H45     0.4460     4.3340     0.1334 H
46 N46     6.3882    -0.9152    -0.9552 N
47 C47     7.5092     1.0490    -1.3973 C
48 C48     7.6509    -0.3999    -1.3460 C
49 C49    -0.0187     0.4760     0.1051 C
50 C50    -2.5077    -3.5670     1.5628 C
51 H51    -1.6576    -3.6734     2.2435 H
52 H52    -3.4102    -3.5342     2.1789 H
53 C53     6.1935    -2.3077    -0.5811 C
54 H54     5.3706    -2.3477     0.1349 H
55 H55     5.9175    -2.9106    -1.4554 H
56 O56     8.6288    -1.0954    -1.5725 O
57 C57    -7.3164     2.8460    -0.0173 C
58 H58    -8.1734     2.7683     0.6595 H
59 H59    -6.4110     2.6041     0.5486 H
60 H60    -7.2410     3.8867    -0.3517 H
61 C61    -2.5075    -4.7346     0.5836 C
62 H62    -3.2949    -4.6479    -0.1727 H
63 H63    -1.5451    -4.7863     0.0649 H
64 H64    -2.6522    -5.6768     1.1241 H
65 C65     2.1108     4.2277     1.4862 C
66 H66     1.4091     4.0555     2.3186 H
67 H67     2.9982     3.5972     1.6639 H
68 C68     3.0413     6.0636     2.6013 C
69 H69     2.3295     5.9914     3.4377 H
70 H70     3.9547     5.5081     2.8653 H
71 H71     3.2951     7.1131     2.4368 H
72 C72     7.3836    -2.9473     0.1294 C
73 H73     8.1832    -3.2201    -0.5677 H
74 H74     7.8044    -2.2520     0.8741 H
75 C75     7.8503    -4.8701     1.3803 C
76 H76     7.3510    -5.7284     1.8359 H
77 H77     8.5919    -5.2286     0.6500 H
78 H78     8.3750    -4.3015     2.1639 H
79 O79     2.4762     5.5811     1.4068 O
80 O80     6.8562    -4.0924     0.7620 O
81 H81     8.3239     1.7127    -1.6531 H
82 H82    -9.5694    -2.1191    -0.2211 H
@<TRIPOS>BOND
1 1 2 2
2 1 4 Ar
3 1 11 1
4 2 6 Ar
5 2 12 1
6 3 4 1
7 3 5 Ar
8 3 21 1
9 4 22 Ar
10 5 6 1
11 5 10 Ar
12 6 7 Ar
13 7 8 1
14 7 16 Ar
15 8 9 Ar
16 8 25 2
17 9 10 2
18 9 13 1
19 10 14 1
20 15 16 1
21 15 17 2
22 15 25 1
23 16 18 1
24 18 19 1
25 18 20 1
26 18 57 1
27 21 23 1
28 21 50 1
29 22 23 1
30 22 49 Ar
31 23 24 2
32 25 82 1
33 26 27 2
34 26 29 Ar
35 26 36 1
36 27 31 Ar
37 27 37 1
38 28 29 1
39 28 30 Ar
40 28 46 Ar
41 29 47 2
42 30 31 1
43 30 35 Ar
44 31 32 Ar
45 32 33 1
46 32 41 1
47 33 34 Ar
48 33 49 Ar
49 34 35 2
50 34 38 1
51 35 39 1
52 40 41 1
53 40 42 2
54 40 49 1
55 41 43 1
56 43 44 1
57 43 45 1
58 43 65 1
59 46 48 1
60 46 53 1
61 47 48 1
62 47 81 1
63 48 56 2
64 50 51 1
65 50 52 1
66 50 61 1
67 53 54 1
68 53 55 1
69 53 72 1
70 57 58 1
71 57 59 1
72 57 60 1
73 61 62 1
74 61 63 1
75 61 64 1
76 65 66 1
77 65 67 1
78 65 79 1
79 68 69 1
80 68 70 1
81 68 71 1
82 68 79 1
83 72 73 1
84 72 74 1
85 72 80 1
86 75 76 1
87 75 77 1
88 75 78 1
89 75 80 1
