# P-g7NC4N
# Created by GaussView 6.1.1
#

#
#

@<TRIPOS>MOLECULE
Molecule Name
94 101
SMALL
NO_CHARGES


@<TRIPOS>ATOM
1 C1     2.6545    -0.9391    -0.5364 C
2 C2     3.9970    -0.8385    -0.7299 C
3 C3     2.6729     1.3361     0.4343 C
4 C4     1.9467     0.1337     0.0656 C
5 C5     4.0416     1.4694     0.2147 C
6 C6     4.7459     0.3306    -0.3658 C
7 C7     6.1238     0.4437    -0.5480 C
8 C8     6.8366     1.6759    -0.2083 C
9 C9     6.1112     2.7861     0.3151 C
10 C10     4.7753     2.6767     0.5160 C
11 H11     2.1259    -1.8447    -0.8023 H
12 H12     4.5091    -1.6771    -1.1790 H
13 H13     6.6370     3.7092     0.5411 H
14 H14     4.2452     3.5365     0.8977 H
15 C15     8.3419     0.1714    -1.0264 C
16 N16     7.0566    -0.4344    -1.0440 N
17 O17     9.3550    -0.3965    -1.4022 O
18 C18     6.9425    -1.8188    -1.4632 C
19 H19     6.1244    -1.9209    -2.1845 H
20 H20     7.8704    -2.0245    -2.0066 H
21 N21     1.7580     2.2218     0.9751 N
22 C22     0.5912     0.3177     0.3393 C
23 C23     0.4734     1.6674     0.9343 C
24 O24    -0.5102     2.2416     1.3762 O
25 C25     8.1595     1.5143    -0.4965 C
26 C26    -6.1018    -2.8149    -0.4105 C
27 C27    -4.7630    -2.7942    -0.1997 C
28 C28    -6.0357    -0.3473    -0.7676 C
29 C29    -6.7855    -1.6015    -0.7145 C
30 C30    -4.6638    -0.3085    -0.5250 C
31 C31    -3.9882    -1.5752    -0.2566 C
32 C32    -2.6113    -1.5359    -0.0528 C
33 C33    -1.8686    -0.2898    -0.0261 C
34 C34    -2.5593     0.9257    -0.2714 C
35 C35    -3.8957     0.9059    -0.5219 C
36 H36    -6.6613    -3.7437    -0.3493 H
37 H37    -4.2756    -3.7282     0.0385 H
38 H38    -2.0215     1.8636    -0.2356 H
39 H39    -4.3868     1.8509    -0.7053 H
40 C40    -0.4104    -2.0363     0.2910 C
41 N41    -1.7014    -2.5607     0.1460 N
42 O42     0.5680    -2.7382     0.4950 O
43 C43    -1.8752    -3.9970     0.1601 C
44 H44    -2.5753    -4.3046    -0.6204 H
45 H45    -0.9009    -4.4273    -0.0853 H
46 N46    -6.9387     0.6421    -1.0806 N
47 C47    -8.0990    -1.3443    -0.9792 C
48 C48    -8.2375     0.0832    -1.2211 C
49 C49    -0.5171    -0.5650     0.1835 C
50 C50     1.9311     3.5173     1.6073 C
51 H51     1.0868     3.6184     2.2968 H
52 H52     2.8401     3.5023     2.2167 H
53 C53    -6.7543     2.0581    -1.3088 C
54 H54    -5.8564     2.2365    -1.9063 H
55 H55    -7.6135     2.3860    -1.9001 H
56 O56    -9.2228     0.7479    -1.4983 O
57 C57     6.8093    -2.8010    -0.3016 C
58 H58     7.7064    -2.7137     0.3259 H
59 H59     5.9562    -2.5301     0.3349 H
60 C60     1.9103     4.6874     0.6259 C
61 H61     2.6615     4.5424    -0.1627 H
62 H62     0.9338     4.6941     0.1237 H
63 C63    -2.3172    -4.5142     1.5240 C
64 H64    -1.4820    -4.4273     2.2375 H
65 H65    -3.1558    -3.9176     1.9221 H
66 C66    -3.0311    -6.4841     2.5694 C
67 H67    -2.1729    -6.4989     3.2583 H
68 H68    -3.8743    -5.9791     3.0659 H
69 H69    -3.3180    -7.5109     2.3322 H
70 C70    -6.7087     2.8543    -0.0102 C
71 H71    -7.7076     2.8543     0.4556 H
72 H72    -6.0065     2.4000     0.7092 H
73 C73    -6.2966     5.0208     0.7741 C
74 H74    -5.9676     6.0002     0.4196 H
75 H75    -7.3011     5.1152     1.2141 H
76 H76    -5.6014     4.6658     1.5506 H
77 O77    -2.7003    -5.8546     1.3554 O
78 O78    -6.3053     4.1588    -0.3374 O
79 C79     2.1430     6.0236     1.3245 C
80 H80     1.3966     6.1514     2.1212 H
81 H81     3.1228     6.0100     1.8248 H
82 C82     2.0768     7.2085     0.3678 C
83 H83     2.8317     7.1223    -0.4234 H
84 H84     1.0951     7.2698    -0.1169 H
85 H85     2.2496     8.1552     0.8914 H
86 C86     6.6530    -4.2393    -0.7860 C
87 H87     5.7525    -4.3182    -1.4128 H
88 H88     7.5010    -4.4986    -1.4355 H
89 C89     6.5620    -5.2395     0.3606 C
90 H90     6.4487    -6.2639    -0.0112 H
91 H91     7.4641    -5.2087     0.9835 H
92 H92     5.7036    -5.0227     1.0077 H
93 H93    -8.9284    -2.0371    -1.0189 H
94 H94     8.9694     2.2208    -0.3765 H
@<TRIPOS>BOND
1 1 2 2
2 1 4 Ar
3 1 11 1
4 2 6 Ar
5 2 12 1
6 3 4 1
7 3 5 Ar
8 3 21 1
9 4 22 Ar
10 5 6 1
11 5 10 Ar
12 6 7 Ar
13 7 8 1
14 7 16 Ar
15 8 9 Ar
16 8 25 2
17 9 10 2
18 9 13 1
19 10 14 1
20 15 16 1
21 15 17 2
22 15 25 1
23 16 18 1
24 18 19 1
25 18 20 1
26 18 57 1
27 21 23 1
28 21 50 1
29 22 23 1
30 22 49 Ar
31 23 24 2
32 25 94 1
33 26 27 2
34 26 29 Ar
35 26 36 1
36 27 31 Ar
37 27 37 1
38 28 29 1
39 28 30 Ar
40 28 46 Ar
41 29 47 2
42 30 31 1
43 30 35 Ar
44 31 32 Ar
45 32 33 1
46 32 41 1
47 33 34 Ar
48 33 49 Ar
49 34 35 2
50 34 38 1
51 35 39 1
52 40 41 1
53 40 42 2
54 40 49 1
55 41 43 1
56 43 44 1
57 43 45 1
58 43 63 1
59 46 48 1
60 46 53 1
61 47 48 1
62 47 93 1
63 48 56 2
64 50 51 1
65 50 52 1
66 50 60 1
67 53 54 1
68 53 55 1
69 53 70 1
70 57 58 1
71 57 59 1
72 57 86 1
73 60 61 1
74 60 62 1
75 60 79 1
76 63 64 1
77 63 65 1
78 63 77 1
79 66 67 1
80 66 68 1
81 66 69 1
82 66 77 1
83 70 71 1
84 70 72 1
85 70 78 1
86 73 74 1
87 73 75 1
88 73 76 1
89 73 78 1
90 79 80 1
91 79 81 1
92 79 82 1
93 82 83 1
94 82 84 1
95 82 85 1
96 86 87 1
97 86 88 1
98 86 89 1
99 89 90 1
100 89 91 1
101 89 92 1
