# N2200 PBC
# Created by GaussView 6.1.1
#

#
#

@<TRIPOS>MOLECULE
Molecule Name
94 99
SMALL
NO_CHARGES


@<TRIPOS>ATOM
1 C1    -2.2784    -3.7693     0.4716 C
2 C2    -1.4789    -2.6192     0.3327 C
3 C3    -2.0213    -1.3359     0.5663 C
4 C4    -3.4392    -1.1784     0.9620 C
5 C5    -1.7498    -5.0269     0.2250 C
6 C6    -0.1193    -2.7204    -0.0633 C
7 C7     0.3822    -4.0183    -0.3255 C
8 C8    -0.4163    -5.1433    -0.1749 C
9 C9     1.7674    -4.2047    -0.7868 C
10 C10     2.0585    -1.7328    -0.7446 C
11 C11     0.6951    -1.5567    -0.1953 C
12 C12     0.1521    -0.2825     0.1074 C
13 C13    -1.2311    -0.2235     0.4507 C
14 H14    -1.6844     0.7351     0.6843 H
15 C15     0.8515     0.9924     0.1445 C
16 S16    -0.0324     2.4426    -0.2619 S
17 C17     2.3801     2.6903     0.5697 C
18 C18     1.3069     3.4695     0.1261 C
19 C19     1.2693     4.8909    -0.0317 C
20 C20     0.1849     5.6623    -0.4438 C
21 S21     2.6380     5.9266     0.2812 S
22 C22     1.7474     7.3297    -0.1370 C
23 C23     3.8310    -3.1947    -1.5796 C
24 H24     4.0369    -2.3244    -2.2038 H
25 H25     3.8325    -4.1018    -2.1859 H
26 C26    -5.5715    -2.2181     1.5338 C
27 H27    -5.8423    -3.1241     2.0778 H
28 H28    -5.6393    -1.3507     2.1927 H
29 N29     2.4904    -3.0413    -1.0193 N
30 N30    -4.1795    -2.3517     1.1120 N
31 O31     2.2620    -5.3049    -0.9826 O
32 O32     2.8201    -0.8108    -0.9935 O
33 O33    -3.9532    -0.0885     1.1534 O
34 H34     0.0241    -6.1132    -0.3848 H
35 C35    -3.6974    -3.6437     0.8725 C
36 O36    -4.4314    -4.6098     0.9946 O
37 C37    -6.4811    -2.0336     0.3313 C
38 H38    -6.2257    -1.1277    -0.2263 H
39 H39    -6.4283    -2.8937    -0.3438 H
40 C40     4.8662    -3.3064    -0.4739 C
41 H41     4.8822    -2.4082     0.1510 H
42 H42     4.6780    -4.1779     0.1606 H
43 O43     3.5255     3.3030     0.9387 O
44 O44    -0.9816     5.0539    -0.7408 O
45 C45     4.6213     2.4790     1.3077 C
46 H46     4.8741     1.7927     0.4895 H
47 H47     4.3722     1.8910     2.2006 H
48 C48    -2.0795     5.8667    -1.1260 C
49 H49    -2.3243     6.5796    -0.3280 H
50 H50    -1.8388     6.4239    -2.0407 H
51 O51    -7.8088    -1.9173     0.8511 O
52 O52     6.1315    -3.4551    -1.1252 O
53 C53     7.1975    -3.5649    -0.3098 C
54 C54     8.4482    -3.7281    -1.1462 C
55 H55     8.3268    -4.6279    -1.7738 H
56 H56     8.5197    -2.8676    -1.8336 H
57 C57    -8.7728    -1.6821    -0.0598 C
58 C58   -10.1113    -1.6031     0.6415 C
59 H59   -10.0456    -0.8332     1.4295 H
60 H60   -10.2885    -2.5661     1.1513 H
61 O61   -11.1093    -1.3157    -0.2833 O
62 O62     9.5600    -3.8222    -0.3159 O
63 C63   -12.3810    -1.2474     0.3119 C
64 H64   -12.4279    -0.4538     1.0743 H
65 H65   -13.0927    -1.0205    -0.4846 H
66 H66   -12.6583    -2.2044     0.7813 H
67 C67    10.7518    -3.9883    -1.0421 C
68 H68    10.9380    -3.1349    -1.7132 H
69 H69    11.5620    -4.0528    -0.3127 H
70 H70    10.7331    -4.9114    -1.6426 H
71 C71     2.1277     1.3100     0.5721 C
72 C72     0.4569     7.0529    -0.5037 C
73 H73     2.8492     0.5666     0.8770 H
74 H74    -0.2594     7.8095    -0.8002 H
75 C75     5.7861     3.4011     1.6026 C
76 H76     6.0363     3.9897     0.7049 H
77 H77     5.5128     4.1065     2.4044 H
78 C78    -3.2495     4.9368    -1.3730 C
79 H79    -2.9931     4.2136    -2.1641 H
80 H80    -3.4778     4.3686    -0.4569 H
81 C81     8.0194     3.3247     2.2941 C
82 H82     8.7908     2.6069     2.5812 H
83 H83     8.3680     3.9004     1.4226 H
84 H84     7.8436     4.0198     3.1297 H
85 C85    -5.4980     4.9893    -2.0128 C
86 H86    -5.3390     4.2768    -2.8365 H
87 H87    -5.8204     4.4316    -1.1205 H
88 H88    -6.2804     5.6964    -2.2967 H
89 O89    -4.3354     5.7395    -1.7545 O
90 O90     6.8615     2.5880     1.9899 O
91 O91    -8.5739    -1.5617    -1.2404 O
92 O92     7.1376    -3.5374     0.8917 O
93 H93    -2.3853    -5.8993     0.3388 H
94 H94     2.2209     8.3019    -0.0881 H
@<TRIPOS>BOND
1 1 2 Ar
2 1 5 Ar
3 1 35 1
4 2 3 Ar
5 2 6 Ar
6 3 4 1
7 3 13 2
8 4 30 1
9 4 33 2
10 5 8 Ar
11 5 93 1
12 6 7 Ar
13 6 11 Ar
14 7 8 Ar
15 7 9 1
16 8 34 1
17 9 29 1
18 9 31 2
19 10 11 1
20 10 29 1
21 10 32 2
22 11 12 Ar
23 12 13 Ar
24 12 15 1
25 13 14 1
26 15 16 1
27 15 71 2
28 16 18 1
29 17 18 Ar
30 17 43 1
31 17 71 Ar
32 18 19 Ar
33 19 20 Ar
34 19 21 1
35 20 44 1
36 20 72 Ar
37 21 22 1
38 22 72 2
39 22 94 1
40 23 24 1
41 23 25 1
42 23 29 1
43 23 40 1
44 26 27 1
45 26 28 1
46 26 30 1
47 26 37 1
48 30 35 1
49 35 36 2
50 37 38 1
51 37 39 1
52 37 51 1
53 40 41 1
54 40 42 1
55 40 52 1
56 43 45 1
57 44 48 1
58 45 46 1
59 45 47 1
60 45 75 1
61 48 49 1
62 48 50 1
63 48 78 1
64 51 57 1
65 52 53 1
66 53 54 1
67 53 92 2
68 54 55 1
69 54 56 1
70 54 62 1
71 57 58 1
72 57 91 2
73 58 59 1
74 58 60 1
75 58 61 1
76 61 63 1
77 62 67 1
78 63 64 1
79 63 65 1
80 63 66 1
81 67 68 1
82 67 69 1
83 67 70 1
84 71 73 1
85 72 74 1
86 75 76 1
87 75 77 1
88 75 90 1
89 78 79 1
90 78 80 1
91 78 89 1
92 81 82 1
93 81 83 1
94 81 84 1
95 81 90 1
96 85 86 1
97 85 87 1
98 85 88 1
99 85 89 1
