# N2200 PBC
# Created by GaussView 6.1.1
#

#
#

@<TRIPOS>MOLECULE
Molecule Name
57 64
SMALL
NO_CHARGES


@<TRIPOS>ATOM
1 C1    -6.1479     1.2875     0.0314 C
2 C2    -4.8298     0.7886     0.0452 C
3 C3    -3.7391     1.6553     0.2665 C
4 C4    -3.9577     3.1066     0.4863 C
5 C5    -7.2152     0.4369    -0.1946 C
6 C6    -4.5774    -0.5904    -0.1732 C
7 C7    -5.6896    -1.4319    -0.4165 C
8 C8    -6.9788    -0.9252    -0.4201 C
9 C9    -5.5002    -2.8718    -0.6844 C
10 C10    -3.0457    -2.5233    -0.5242 C
11 C11    -3.2479    -1.0976    -0.1519 C
12 C12    -2.1758    -0.2280     0.1275 C
13 C13    -2.4617     1.1544     0.3035 C
14 H14    -1.6515     1.8450     0.5179 H
15 C15    -0.7753    -0.6144     0.3030 C
16 C16    -0.2237    -1.6429     1.0355 C
17 S17     0.4810     0.4065    -0.3330 S
18 C18     1.1819    -1.6105     1.0893 C
19 H19    -0.8218    -2.3999     1.5272 H
20 C20     1.7386    -0.5548     0.3860 C
21 H21     1.7864    -2.3338     1.6206 H
22 C22    -3.9309    -4.7073    -1.0738 C
23 H23    -3.3581    -4.7685    -2.0022 H
24 H24    -3.3480    -5.1798    -0.2797 H
25 H25    -4.8954    -5.1993    -1.1853 H
26 C26    -5.5529     4.9620     0.6789 C
27 H27    -4.5990     5.4653     0.8253 H
28 H28    -6.0746     5.3727    -0.1888 H
29 H29    -6.1919     5.0877     1.5563 H
30 N30    -4.1827    -3.3105    -0.7378 N
31 N31    -5.2819     3.5450     0.4656 N
32 O32    -6.4385    -3.6318    -0.8652 O
33 O33    -1.9512    -3.0396    -0.6699 O
34 O34    -3.0335     3.8790     0.6752 O
35 C35    -6.3942     2.7307     0.2554 C
36 O36    -7.5149     3.2119     0.2585 O
37 C37     3.1336    -0.2070     0.1944 C
38 C38     4.2113    -1.0507     0.6302 C
39 C39     3.5304     0.9671    -0.4257 C
40 C40     5.5992    -0.6763     0.4177 C
41 C41     4.8758     1.3280    -0.6343 C
42 H42     2.7725     1.6648    -0.7734 H
43 C43     5.9535     0.5529    -0.2369 C
44 H44     5.0603     2.2750    -1.1350 H
45 C45     7.3306     0.9551    -0.4631 C
46 C46     8.5031     0.2935    -0.1514 C
47 S47     7.6949     2.4773    -1.2373 S
48 C48     9.6688     1.0042    -0.5327 C
49 H49     8.5094    -0.6727     0.3359 H
50 C50     9.3860     2.2022    -1.1316 C
51 S51     5.5777    -2.7877     1.5327 S
52 N52     4.0809    -2.2246     1.2506 N
53 N53     6.4565    -1.5843     0.8885 N
54 H54    -7.7983    -1.6124    -0.6069 H
55 H55    10.6780     0.6419    -0.3695 H
56 H56    -8.2218     0.8433    -0.1990 H
57 H57    10.0775     2.9407    -1.5169 H
@<TRIPOS>BOND
1 1 2 Ar
2 1 5 2
3 1 35 1
4 2 3 Ar
5 2 6 Ar
6 3 4 1
7 3 13 2
8 4 31 1
9 4 34 2
10 5 8 Ar
11 5 56 1
12 6 7 Ar
13 6 11 Ar
14 7 8 2
15 7 9 1
16 8 54 1
17 9 30 1
18 9 32 2
19 10 11 1
20 10 30 1
21 10 33 2
22 11 12 Ar
23 12 13 Ar
24 12 15 1
25 13 14 1
26 15 16 2
27 15 17 1
28 16 18 Ar
29 16 19 1
30 17 20 1
31 18 20 2
32 18 21 1
33 20 37 1
34 22 23 1
35 22 24 1
36 22 25 1
37 22 30 1
38 26 27 1
39 26 28 1
40 26 29 1
41 26 31 1
42 31 35 1
43 35 36 2
44 37 38 Ar
45 37 39 2
46 38 40 1
47 38 52 Ar
48 39 41 Ar
49 39 42 1
50 40 43 Ar
51 40 53 Ar
52 41 43 2
53 41 44 1
54 43 45 1
55 45 46 2
56 45 47 1
57 46 48 Ar
58 46 49 1
59 47 50 1
60 48 50 2
61 48 55 1
62 50 57 1
63 51 52 1
64 51 53 1
