# P-PzDPP-CT2
# Created by GaussView 6.1.1
#

#
#

@<TRIPOS>MOLECULE
Molecule Name
52 57
SMALL
NO_CHARGES


@<TRIPOS>ATOM
1 C1     3.7629     1.6719    -0.0008 C
2 C2     3.4869     0.2484    -0.0002 C
3 C3     4.7259    -0.4356     0.0003 C
4 C4     4.4492    -1.8601     0.0004 C
5 C5     5.7565     0.4979     0.0001 C
6 C6    -3.0366     0.4133    -0.0004 C
7 C7    -3.5933     1.6688    -0.0020 C
8 S8    -4.2600    -0.8139     0.0014 S
9 C9    -5.0088     1.6414    -0.0017 C
10 H10    -3.0007     2.5756    -0.0033 H
11 C11    -5.5471     0.3486     0.0001 C
12 C12    -6.9313    -0.0608     0.0011 C
13 C13    -7.4643    -1.3540    -0.0009 C
14 S14    -8.2262     1.0969     0.0056 S
15 C15    -8.8881    -1.3813     0.0012 C
16 C16    -9.4257    -0.1284     0.0048 C
17 H17    -9.4635    -2.2994     0.0000 H
18 C18    -5.7671     2.8437    -0.0033 C
19 N19    -6.3521     3.8488    -0.0045 N
20 C20    -6.7079    -2.5561    -0.0047 C
21 N21    -6.1279    -3.5646    -0.0077 N
22 N22     5.1822     1.7545    -0.0005 N
23 O23     5.1719    -2.8471     0.0005 O
24 O24     3.0388     2.6591    -0.0014 O
25 C25     7.1941     0.2516     0.0006 C
26 C26     7.6897    -1.0694     0.0006 C
27 H27     7.0132    -1.9223     0.0002 H
28 C28     9.3316     1.0319     0.0017 C
29 C29     9.8153    -0.2764     0.0016 C
30 H30    10.0106     1.8825     0.0022 H
31 C31    -1.6166     0.1020    -0.0003 C
32 C32    -1.1187    -1.2124     0.0007 C
33 H33    -1.7879    -2.0724     0.0014 H
34 C34     0.5262     0.8874    -0.0013 C
35 H35     1.2035     1.7405    -0.0020 H
36 C36     2.4552    -0.6851    -0.0002 C
37 N37     0.1759    -1.4770     0.0007 N
38 N38    -0.7705     1.1463    -0.0013 N
39 N39     8.9945    -1.3272     0.0010 N
40 N40     8.0317     1.3000     0.0011 N
41 C41     1.0245    -0.4359    -0.0003 C
42 N42     3.0298    -1.9419     0.0003 N
43 C43     5.8146     3.0603    -0.0014 C
44 H44     6.4367     3.1963     0.8850 H
45 H45     6.4371     3.1949    -0.8876 H
46 H46     4.9989     3.7864    -0.0022 H
47 C47     2.3952    -3.2465    -0.0004 C
48 H48     1.7728    -3.3819     0.8860 H
49 H49     1.7733    -3.3812    -0.8873 H
50 H50     3.2095    -3.9742    -0.0006 H
51 H51    10.8837    -0.4812     0.0020 H
52 H52   -10.4722     0.1482     0.0069 H
@<TRIPOS>BOND
1 1 2 1
2 1 22 1
3 1 24 2
4 2 3 Ar
5 2 36 Ar
6 3 4 1
7 3 5 Ar
8 4 23 2
9 4 42 1
10 5 22 Ar
11 5 25 1
12 6 7 2
13 6 8 1
14 6 31 1
15 7 9 Ar
16 7 10 1
17 8 11 1
18 9 11 Ar
19 9 18 Ar
20 11 12 Ar
21 12 13 Ar
22 12 14 1
23 13 15 Ar
24 13 20 Ar
25 14 16 1
26 15 16 2
27 15 17 1
28 16 52 1
29 18 19 3
30 20 21 3
31 22 43 1
32 25 26 Ar
33 25 40 Ar
34 26 27 1
35 26 39 Ar
36 28 29 Ar
37 28 30 1
38 28 40 Ar
39 29 39 Ar
40 29 51 1
41 31 32 Ar
42 31 38 Ar
43 32 33 1
44 32 37 2
45 34 35 1
46 34 38 2
47 34 41 Ar
48 36 41 1
49 36 42 1
50 37 41 Ar
51 42 47 1
52 43 44 1
53 43 45 1
54 43 46 1
55 47 48 1
56 47 49 1
57 47 50 1
