# P-TDPP-CT2
# Created by GaussView 6.1.1
#

#
#

@<TRIPOS>MOLECULE
Molecule Name
50 55
SMALL
NO_CHARGES


@<TRIPOS>ATOM
1 C1    -7.0612     0.0970    -0.0609 C
2 C2    -7.5335    -1.2094    -0.0835 C
3 C3    -8.9422    -1.2926    -0.0968 C
4 C4    -9.5426    -0.0577    -0.0840 C
5 S5    -8.4007     1.2175    -0.0558 S
6 H6    -6.8615    -2.0633    -0.0888 H
7 H7    -9.4965    -2.2251    -0.1151 H
8 H8   -10.6020     0.1735    -0.0896 H
9 C9    -3.7402     1.7361    -0.0074 C
10 C10    -3.3845     0.3405    -0.0118 C
11 C11    -4.5812    -0.4215    -0.0333 C
12 C12    -4.2268    -1.8164    -0.0345 C
13 C13    -2.2960    -0.5300     0.0012 C
14 C14    -5.6708     0.4505    -0.0419 C
15 C15    -0.9077    -0.1741     0.0246 C
16 C16    -0.4342     1.1327     0.0444 C
17 S17     0.4242    -1.2993     0.0316 S
18 C18     0.9665     1.2190     0.0768 C
19 H19    -1.1043     1.9879     0.0449 H
20 C20     1.5866    -0.0179     0.0822 C
21 H21     1.5059     2.1605     0.1164 H
22 C22     2.9976    -0.3164     0.1168 C
23 C23     3.6189    -1.4905     0.4764 C
24 S24     4.1637     0.8863    -0.3432 S
25 C25     5.0336    -1.4060     0.3966 C
26 H26     3.0993    -2.3783     0.8204 H
27 C27     5.4965    -0.1613    -0.0204 C
28 C28     6.8585     0.2810    -0.2212 C
29 C29     7.4315     1.5096     0.0973 C
30 S30     8.0308    -0.7331    -0.9817 S
31 C31     8.8076     1.6043    -0.2666 C
32 C32     9.2601     0.4591    -0.8543 C
33 H33     9.4168     2.4819    -0.0827 H
34 H34    10.2573     0.2465    -1.2224 H
35 C35     5.8834    -2.4802     0.7745 C
36 N36     6.5602    -3.3702     1.0925 N
37 C37     6.7433     2.5543     0.7691 C
38 N38     6.2008     3.4212     1.3228 N
39 N39    -5.1600     1.7353    -0.0273 N
40 N40    -2.8073    -1.8160    -0.0127 N
41 O41    -4.8914    -2.8532    -0.0502 O
42 O42    -3.0751     2.7714     0.0089 O
43 C43    -5.8892     2.9821    -0.0330 C
44 H44    -6.4971     3.0830    -0.9375 H
45 H45    -6.5150     3.0814     0.8593 H
46 H46    -5.1456     3.7818    -0.0246 H
47 C47    -2.0780    -3.0625    -0.0063 C
48 H48    -1.4478    -3.1608    -0.8958 H
49 H49    -1.4764    -3.1682     0.9020 H
50 H50    -2.8221    -3.8617    -0.0218 H
@<TRIPOS>BOND
1 1 2 Ar
2 1 5 1
3 1 14 Ar
4 2 3 Ar
5 2 6 1
6 3 4 2
7 3 7 1
8 4 5 1
9 4 8 1
10 9 10 Ar
11 9 39 1
12 9 42 2
13 10 11 Ar
14 10 13 Ar
15 11 12 Ar
16 11 14 Ar
17 12 40 1
18 12 41 2
19 13 15 Ar
20 13 40 1
21 14 39 1
22 15 16 Ar
23 15 17 1
24 16 18 Ar
25 16 19 1
26 17 20 1
27 18 20 2
28 18 21 1
29 20 22 Ar
30 22 23 2
31 22 24 1
32 23 25 Ar
33 23 26 1
34 24 27 1
35 25 27 Ar
36 25 35 Ar
37 27 28 Ar
38 28 29 Ar
39 28 30 1
40 29 31 Ar
41 29 37 Ar
42 30 32 1
43 31 32 2
44 31 33 1
45 32 34 1
46 35 36 3
47 37 38 3
48 39 43 1
49 40 47 1
50 43 44 1
51 43 45 1
52 43 46 1
53 47 48 1
54 47 49 1
55 47 50 1
