# P3a
# Created by GaussView 6.1.1
#

#
#

@<TRIPOS>MOLECULE
Molecule Name
85 92
SMALL
NO_CHARGES


@<TRIPOS>ATOM
1 C1    -0.1173     1.3422    -0.6493 C
2 C2    -1.4411     1.7043    -0.7470 C
3 C3    -2.5506     0.8403    -0.6439 C
4 C4    -2.2880    -0.5232    -0.4205 C
5 C5    -0.9644    -0.8859    -0.3227 C
6 C6     0.1448    -0.0212    -0.4255 C
7 H7     0.6726     2.0743    -0.7245 H
8 H8    -3.0784    -1.2545    -0.3435 H
9 C9     1.3281    -0.8609    -0.3069 C
10 C10    -3.1810     3.0670    -0.9649 C
11 C11    -3.7354     1.6801    -0.7682 C
12 C12     0.7784    -2.2453    -0.1071 C
13 O13    -1.8177     3.0070    -0.9472 O
14 O14    -0.5860    -2.1881    -0.1228 O
15 O15    -3.7311     4.1217    -1.1425 O
16 O16     1.3324    -3.2983     0.0751 O
17 C17    -5.0861     1.4086    -0.7410 C
18 C18    -5.6271    -0.0070    -0.6882 C
19 C19     2.6805    -0.5895    -0.3461 C
20 C20     3.2236     0.8258    -0.3831 C
21 N21    -6.9961     0.0793    -0.6947 N
22 N22     4.5936     0.7364    -0.4271 N
23 O23    -5.0233    -1.0680    -0.6673 O
24 O24     2.6221     1.8870    -0.3556 O
25 C25    -7.8563    -1.0830    -0.6563 C
26 H26    -7.2731    -1.9152    -1.0623 H
27 H27    -8.7021    -0.9072    -1.3326 H
28 C28     5.4583     1.8960    -0.4456 C
29 H29     6.2692     1.7110    -1.1615 H
30 H30     4.8569     2.7244    -0.8321 H
31 C31    -7.4034     1.4045    -0.7203 C
32 C32    -6.2735     2.2624    -0.7629 C
33 C33     3.8599    -1.4416    -0.3576 C
34 C34     4.9948    -0.5897    -0.4129 C
35 C35    -6.5068     3.6448    -0.7791 C
36 C36    -7.8147     4.1286    -0.7616 C
37 C37    -8.9021     3.2576    -0.7304 C
38 C38    -8.7064     1.8746    -0.7058 C
39 C39     4.0993    -2.8246    -0.3739 C
40 C40     6.2915    -1.0589    -0.4754 C
41 C41     5.3992    -3.3087    -0.4336 C
42 C42     6.5109    -2.4494    -0.4874 C
43 H43    -9.5510     1.1932    -0.6719 H
44 H44    -7.9808     5.2017    -0.7774 H
45 H45    -5.6761     4.3330    -0.8164 H
46 H46     7.1274    -0.3686    -0.5432 H
47 H47     3.2723    -3.5166    -0.3171 H
48 H48     5.5559    -4.3824    -0.4066 H
49 C49     7.8608    -2.9942    -0.5558 C
50 C50     8.2596    -4.2432    -0.9852 C
51 S51     9.2459    -2.0604    -0.0703 S
52 C52     9.6622    -4.4385    -0.9276 C
53 H53     7.5649    -4.9873    -1.3594 H
54 C54    10.3267    -3.3387    -0.4521 C
55 H55    10.1610    -5.3524    -1.2314 H
56 C56    -8.3450    -1.4212     0.7506 C
57 H57    -8.8578    -0.5502     1.1815 H
58 H58    -7.4692    -1.6175     1.3831 H
59 C59    -9.2754    -2.6293     0.7471 C
60 H60   -10.1610    -2.4269     0.1295 H
61 H61    -8.7702    -3.4956     0.3000 H
62 C62     6.0170     2.2485     0.9312 C
63 H63     5.1744     2.4561     1.6039 H
64 H64     6.5474     1.3805     1.3468 H
65 C65     6.9516     3.4517     0.8674 C
66 H66     7.8017     3.2394     0.2050 H
67 H67     6.4274     4.3171     0.4411 H
68 C68     7.4895     3.8362     2.2319 C
69 H69     6.6595     4.0991     2.9114 H
70 H70     8.0279     2.9856     2.6874 H
71 C71     8.8950     5.3674     3.3064 C
72 H72     9.4828     4.5730     3.7937 H
73 H73     9.5507     6.2142     3.0904 H
74 H74     8.1038     5.6936     4.0002 H
75 O75     8.3585     4.9328     2.0838 O
76 C76    -9.7371    -3.0058     2.1414 C
77 H77   -10.2525    -2.1537     2.6200 H
78 H78    -8.8705    -3.2618     2.7763 H
79 O79   -10.6096    -4.1056     2.0483 O
80 C80   -11.0766    -4.5340     3.3014 C
81 H81   -11.6393    -3.7381     3.8153 H
82 H82   -11.7406    -5.3840     3.1271 H
83 H83   -10.2474    -4.8534     3.9525 H
84 H84    -9.9147     3.6521    -0.7219 H
85 H85    11.3909    -3.2127    -0.2990 H
@<TRIPOS>BOND
1 1 2 2
2 1 6 Ar
3 1 7 1
4 2 3 Ar
5 2 13 1
6 3 4 Ar
7 3 11 1
8 4 5 2
9 4 8 1
10 5 6 Ar
11 5 14 1
12 6 9 1
13 9 12 1
14 9 19 2
15 10 11 1
16 10 13 1
17 10 15 2
18 11 17 2
19 12 14 1
20 12 16 2
21 17 18 1
22 17 32 1
23 18 21 Ar
24 18 23 2
25 19 20 1
26 19 33 1
27 20 22 Ar
28 20 24 2
29 21 25 1
30 21 31 1
31 22 28 1
32 22 34 1
33 25 26 1
34 25 27 1
35 25 56 1
36 28 29 1
37 28 30 1
38 28 62 1
39 31 32 Ar
40 31 38 2
41 32 35 Ar
42 33 34 Ar
43 33 39 Ar
44 34 40 2
45 35 36 Ar
46 35 45 1
47 36 37 Ar
48 36 44 1
49 37 38 Ar
50 37 84 1
51 38 43 1
52 39 41 Ar
53 39 47 1
54 40 42 Ar
55 40 46 1
56 41 42 Ar
57 41 48 1
58 42 49 1
59 49 50 2
60 49 51 1
61 50 52 Ar
62 50 53 1
63 51 54 1
64 52 54 2
65 52 55 1
66 54 85 1
67 56 57 1
68 56 58 1
69 56 59 1
70 59 60 1
71 59 61 1
72 59 76 1
73 62 63 1
74 62 64 1
75 62 65 1
76 65 66 1
77 65 67 1
78 65 68 1
79 68 69 1
80 68 70 1
81 68 75 1
82 71 72 1
83 71 73 1
84 71 74 1
85 71 75 1
86 76 77 1
87 76 78 1
88 76 79 1
89 79 80 1
90 80 81 1
91 80 82 1
92 80 83 1
