# PBN-19
# Created by GaussView 6.1.1
#

#
#

@<TRIPOS>MOLECULE
Molecule Name
62 69
SMALL
NO_CHARGES


@<TRIPOS>ATOM
1 C1     2.6346     1.9890     0.1162 C
2 C2     1.2213     2.0268     0.1538 C
3 C3     3.1768     0.7236     0.0039 C
4 C4     0.6248     0.7863     0.0784 C
5 S5     1.8647    -0.4319    -0.0577 S
6 C6     0.8092     3.4456     0.2865 C
7 O7    -0.2925     3.9517     0.3441 O
8 C8     3.1387     3.3746     0.2297 C
9 O9     4.2803     3.7909     0.2386 O
10 N10     1.9995     4.1723     0.3311 N
11 C11     2.0325     5.6111     0.4555 C
12 H12     1.5013     6.0750    -0.3802 H
13 H13     1.5567     5.9213     1.3899 H
14 H14     3.0796     5.9184     0.4500 H
15 C15     4.5521     0.2856    -0.0668 C
16 C16     5.0738    -0.9925    -0.1632 C
17 S17     5.8870     1.4309    -0.0404 S
18 C18     6.4856    -1.0334    -0.2125 C
19 C19     4.5890    -2.3915    -0.2296 C
20 C20     7.0729     0.1936    -0.1575 C
21 C21     6.9260    -2.4413    -0.3104 C
22 O22     3.4571    -2.8350    -0.2188 O
23 N23     5.7357    -3.1821    -0.3138 N
24 O24     8.0411    -2.9095    -0.3758 O
25 C25     5.6882    -4.6227    -0.3966 C
26 H26     5.1983    -5.0391     0.4882 H
27 H27     5.1335    -4.9348    -1.2860 H
28 H28     6.7174    -4.9816    -0.4551 H
29 C29    -0.7741     0.3694     0.0909 C
30 C30    -1.8047     1.3130     0.0169 C
31 C31    -1.1225    -0.9796     0.1828 C
32 H32    -1.6234     2.3820    -0.0168 H
33 C33    -2.4649    -1.3943     0.1909 C
34 H34    -0.3490    -1.7342     0.2738 H
35 C35    -3.4572    -0.3741     0.0553 C
36 C36    -4.8438    -0.6962    -0.1470 C
37 C37    -5.7713     0.2753    -0.6401 C
38 C38    -6.4584    -2.4041    -0.2912 C
39 C39    -7.0551    -0.1937    -0.9986 C
40 C40    -7.3903    -1.5228    -0.8218 C
41 H41    -6.6614    -3.4514    -0.1085 H
42 N42    -5.2285    -1.9845     0.0235 N
43 N43    -3.0831     0.9265    -0.0034 N
44 N44    -2.8397    -2.6861     0.2818 N
45 N45    -5.3844     1.5570    -0.7758 N
46 C46    -1.8233    -3.7180     0.3419 C
47 H47    -1.2147    -3.6437     1.2546 H
48 H48    -2.3189    -4.6890     0.3369 H
49 H49    -1.1579    -3.6691    -0.5293 H
50 C50    -6.2992     2.5192    -1.3575 C
51 H51    -5.7780     3.4716    -1.4562 H
52 H52    -6.6241     2.2011    -2.3561 H
53 H53    -7.1878     2.6729    -0.7286 H
54 B54    -4.2485    -3.0363     0.7215 B
55 B55    -4.1952     2.0801     0.0150 B
56 F56    -3.6588     3.2085    -0.5778 F
57 F57    -4.5071     2.2988     1.3537 F
58 F58    -4.4331    -2.8962     2.0952 F
59 F59    -4.6108    -4.3071     0.2947 F
60 H60    -7.7866     0.4995    -1.3972 H
61 H61    -8.3808    -1.8839    -1.0778 H
62 H62     8.1262     0.4455    -0.1758 H
@<TRIPOS>BOND
1 1 2 Ar
2 1 3 2
3 1 8 1
4 2 4 2
5 2 6 1
6 3 5 1
7 3 15 Ar
8 4 5 1
9 4 29 1
10 6 7 2
11 6 10 1
12 8 9 2
13 8 10 1
14 10 11 1
15 11 12 1
16 11 13 1
17 11 14 1
18 15 16 2
19 15 17 1
20 16 18 Ar
21 16 19 1
22 17 20 1
23 18 20 2
24 18 21 1
25 19 22 2
26 19 23 1
27 20 62 1
28 21 23 1
29 21 24 2
30 23 25 1
31 25 26 1
32 25 27 1
33 25 28 1
34 29 30 Ar
35 29 31 Ar
36 30 32 1
37 30 43 Ar
38 31 33 Ar
39 31 34 1
40 33 35 Ar
41 33 44 Ar
42 35 36 Ar
43 35 43 Ar
44 36 37 Ar
45 36 42 Ar
46 37 39 Ar
47 37 45 Ar
48 38 40 Ar
49 38 41 1
50 38 42 Ar
51 39 40 2
52 39 60 1
53 40 61 1
54 42 54 1
55 43 55 1
56 44 46 1
57 44 54 1
58 45 50 1
59 45 55 1
60 46 47 1
61 46 48 1
62 46 49 1
63 50 51 1
64 50 52 1
65 50 53 1
66 54 58 1
67 54 59 1
68 55 56 1
69 55 57 1
