# PBTI-2
# Created by GaussView 6.1.1
#

#
#

@<TRIPOS>MOLECULE
Molecule Name
44 49
SMALL
NO_CHARGES


@<TRIPOS>ATOM
1 C1     4.4367    -1.1269    -0.0931 C
2 C2     3.1679    -0.4767    -0.0191 C
3 C3     2.9060     0.8805     0.1005 C
4 C4     5.6954    -0.5431    -0.1255 C
5 C5     3.8245     2.0296     0.2343 C
6 C6     6.0989     0.8737    -0.0468 C
7 C7     6.7351    -1.5136    -0.2517 C
8 C8     1.5130     1.1597     0.1244 C
9 C9     0.7193     0.0449     0.0269 C
10 C10     5.8944     3.2068     0.5050 C
11 H11     5.9905     3.7656    -0.4311 H
12 H12     5.2949     3.7902     1.2007 H
13 H13     6.8873     3.0075     0.9011 H
14 S14     4.5535    -2.8541    -0.2053 S
15 S15     1.6951    -1.3883    -0.1134 S
16 N16     5.2205     1.9222     0.2735 N
17 O17     7.2815     1.1423    -0.2133 O
18 O18     3.3282     3.1447     0.3389 O
19 H19     7.7799    -1.2342    -0.2972 H
20 H20     1.1404     2.1721     0.2290 H
21 C21    -0.7193    -0.0448     0.0272 C
22 C22    -1.5130    -1.1595     0.1262 C
23 S23    -1.6952     1.3882    -0.1143 S
24 C24    -2.9060    -0.8804     0.1025 C
25 H25    -1.1404    -2.1717     0.2319 H
26 C26    -3.1679     0.4767    -0.0185 C
27 C27    -3.8244    -2.0293     0.2380 C
28 C28    -4.4368     1.1269    -0.0922 C
29 N29    -5.2206    -1.9222     0.2734 N
30 O30    -3.3279    -3.1440     0.3463 O
31 C31    -5.6953     0.5429    -0.1262 C
32 S32    -4.5539     2.8542    -0.2023 S
33 C33    -6.0982    -0.8742    -0.0499 C
34 C34    -5.8953    -3.2065     0.5042 C
35 C35    -6.7351     1.5133    -0.2522 C
36 O36    -7.2802    -1.1434    -0.2204 O
37 H37    -5.9926    -3.7643    -0.4324 H
38 H38    -5.2958    -3.7909     1.1990 H
39 H39    -6.8879    -3.0069     0.9011 H
40 H40    -7.7799     1.2337    -0.2989 H
41 C41    -6.2704     2.7919    -0.2991 C
42 C42     6.2701    -2.7920    -0.3005 C
43 H43    -6.8387     3.7093    -0.3820 H
44 H44     6.8383    -3.7094    -0.3842 H
@<TRIPOS>BOND
1 1 2 Ar
2 1 4 Ar
3 1 14 1
4 2 3 Ar
5 2 15 1
6 3 5 1
7 3 8 Ar
8 4 6 1
9 4 7 Ar
10 5 16 1
11 5 18 2
12 6 16 1
13 6 17 2
14 7 19 1
15 7 42 2
16 8 9 2
17 8 20 1
18 9 15 1
19 9 21 Ar
20 10 11 1
21 10 12 1
22 10 13 1
23 10 16 1
24 14 42 1
25 21 22 2
26 21 23 1
27 22 24 Ar
28 22 25 1
29 23 26 1
30 24 26 Ar
31 24 27 1
32 26 28 Ar
33 27 29 1
34 27 30 2
35 28 31 Ar
36 28 32 1
37 29 33 1
38 29 34 1
39 31 33 1
40 31 35 Ar
41 32 41 1
42 33 36 2
43 34 37 1
44 34 38 1
45 34 39 1
46 35 40 1
47 35 41 2
48 41 43 1
49 42 44 1
