# PBTI
# Created by GaussView 6.1.1
#

#
#

@<TRIPOS>MOLECULE
Molecule Name
23 25
SMALL
NO_CHARGES


@<TRIPOS>ATOM
1 C1    -0.8458    -0.7555    -0.0163 C
2 C2    -0.9163     0.6709     0.0529 C
3 C3     0.1258     1.5757    -0.0668 C
4 C4     0.2858    -1.5568     0.0020 C
5 C5     1.5655     1.3296    -0.2443 C
6 C6     1.7043    -1.1900     0.1477 C
7 C7    -0.0394    -2.9471    -0.0889 C
8 C8    -0.3271     2.9314    -0.0209 C
9 C9    -1.3778    -3.1796    -0.1758 C
10 C10    -1.6742     3.0374     0.1454 C
11 C11     3.6429     0.2171     0.2387 C
12 H12     4.1420    -0.0196    -0.7067 H
13 H13     3.8974     1.2330     0.5331 H
14 H14     3.9666    -0.4923     0.9983 H
15 S15    -2.2824    -1.7156    -0.1514 S
16 S16    -2.4308     1.4938     0.2359 S
17 N17     2.1864     0.1211     0.0992 N
18 O18     2.5204    -2.0961     0.3007 O
19 O19     2.2735     2.2613    -0.6130 O
20 H20     0.7111    -3.7278    -0.0869 H
21 H21     0.3421     3.7796    -0.0991 H
22 H22    -1.8924    -4.1297    -0.2584 H
23 H23    -2.2730     3.9368     0.2297 H
@<TRIPOS>BOND
1 1 2 Ar
2 1 4 Ar
3 1 15 1
4 2 3 2
5 2 16 1
6 3 5 1
7 3 8 Ar
8 4 6 1
9 4 7 Ar
10 5 17 1
11 5 19 2
12 6 17 1
13 6 18 2
14 7 9 2
15 7 20 1
16 8 10 2
17 8 21 1
18 9 15 1
19 9 22 1
20 10 16 1
21 10 23 1
22 11 12 1
23 11 13 1
24 11 14 1
25 11 17 1
