# PBTzI
# Created by GaussView 6.1.1
#

#
#

@<TRIPOS>MOLECULE
Molecule Name
40 45
SMALL
NO_CHARGES


@<TRIPOS>ATOM
1 C1     3.0767    -0.5424    -0.0824 C
2 C2     4.3802    -1.1306    -0.0927 C
3 C3     5.5923    -0.4897     0.0869 C
4 C4     2.7633     0.8009    -0.2153 C
5 C5     5.8594     0.9399     0.3959 C
6 C6     3.6619     1.9647    -0.4523 C
7 C7     0.7208     0.0030    -0.0391 C
8 C8     6.3527    -2.5331    -0.1706 C
9 C9     5.6211     3.2932     0.0858 C
10 H10     4.9211     4.0261    -0.3061 H
11 H11     5.8727     3.5078     1.1266 H
12 H12     6.5447     3.2992    -0.4974 H
13 S13     1.6293    -1.4771     0.0780 S
14 S14     4.6503    -2.8246    -0.3227 S
15 N15     4.9912     1.9687    -0.0012 N
16 O16     3.1847     2.9607    -0.9613 O
17 O17     6.9151     1.2374     0.9209 O
18 C18    -4.3802     1.1306     0.0927 C
19 C19    -3.0767     0.5424     0.0824 C
20 C20    -2.7633    -0.8009     0.2153 C
21 C21    -5.5923     0.4897    -0.0869 C
22 C22    -3.6619    -1.9647     0.4524 C
23 C23    -5.8594    -0.9399    -0.3959 C
24 C24    -6.3527     2.5331     0.1705 C
25 C25    -0.7208    -0.0030     0.0392 C
26 C26    -5.6211    -3.2932    -0.0858 C
27 H27    -5.8726    -3.5079    -1.1266 H
28 H28    -4.9211    -4.0261     0.3062 H
29 H29    -6.5448    -3.2991     0.4973 H
30 S30    -4.6503     2.8246     0.3226 S
31 S31    -1.6293     1.4771    -0.0779 S
32 N32    -4.9912    -1.9687     0.0013 N
33 O33    -6.9150    -1.2374    -0.9210 O
34 O34    -3.1847    -2.9607     0.9613 O
35 N35    -1.4316    -1.0821     0.1909 N
36 N36     1.4316     1.0821    -0.1909 N
37 N37    -6.6920     1.3034    -0.0394 N
38 N38     6.6920    -1.3034     0.0393 N
39 H39    -7.0607     3.3500     0.2576 H
40 H40     7.0606    -3.3500    -0.2577 H
@<TRIPOS>BOND
1 1 2 Ar
2 1 4 2
3 1 13 1
4 2 3 2
5 2 14 1
6 3 5 1
7 3 38 Ar
8 4 6 1
9 4 36 Ar
10 5 15 1
11 5 17 2
12 6 15 1
13 6 16 2
14 7 13 1
15 7 25 Ar
16 7 36 2
17 8 14 1
18 8 38 2
19 8 40 1
20 9 10 1
21 9 11 1
22 9 12 1
23 9 15 1
24 18 19 Ar
25 18 21 2
26 18 30 1
27 19 20 2
28 19 31 1
29 20 22 1
30 20 35 Ar
31 21 23 1
32 21 37 Ar
33 22 32 1
34 22 34 2
35 23 32 1
36 23 33 2
37 24 30 1
38 24 37 2
39 24 39 1
40 25 31 1
41 25 35 2
42 26 27 1
43 26 28 1
44 26 29 1
45 26 32 1
