# PClBD
# Created by GaussView 6.1.1
#

#
#

@<TRIPOS>MOLECULE
Molecule Name
84 94
SMALL
NO_CHARGES


@<TRIPOS>ATOM
1 C1    -4.5443    -0.8869    -0.1929 C
2 C2    -5.9101    -1.0268    -0.1031 C
3 C3    -6.8422     0.0116     0.0991 C
4 C4    -6.3364     1.3185     0.2178 C
5 C5    -4.9709     1.4589     0.1271 C
6 C6    -4.0382     0.4197    -0.0717 C
7 H7    -3.9013    -1.7394    -0.3511 H
8 H8    -6.9787     2.1705     0.3813 H
9 C9    -2.7248     1.0493    -0.0884 C
10 C10    -7.8638    -2.0798    -0.1096 C
11 C11    -8.1581    -0.6153     0.0974 C
12 C12    -3.0171     2.5113     0.1186 C
13 O13    -6.5153    -2.2512    -0.2162 O
14 O14    -4.3654     2.6834     0.2342 O
15 O15    -8.5964    -3.0309    -0.1711 O
16 O16    -2.2833     3.4620     0.1862 O
17 C17    -9.4354    -0.1210     0.2412 C
18 C18    -9.7106     1.3389     0.5471 C
19 C19    -1.4458     0.5580    -0.2493 C
20 C20    -1.1615    -0.9142    -0.4840 C
21 N21   -11.0729     1.4866     0.6270 N
22 N22     0.1995    -1.0513    -0.6094 N
23 O23    -8.9239     2.2554     0.7177 O
24 O24    -1.9406    -1.8490    -0.5608 O
25 C25   -11.7224     2.7392     0.9117 C
26 H26   -10.9429     3.4914     1.0454 H
27 H27   -12.3740     3.0359     0.0818 H
28 H28   -12.3178     2.6673     1.8290 H
29 C29     0.8584    -2.3119    -0.8372 C
30 H30     1.4061    -2.2971    -1.7862 H
31 H31     1.5568    -2.5361    -0.0234 H
32 H32     0.0875    -3.0835    -0.8770 H
33 C33   -11.7111     0.2801     0.3998 C
34 C34   -10.7590    -0.7438     0.1647 C
35 C35    -0.1333     1.1941    -0.2546 C
36 C36     0.8258     0.1730    -0.4738 C
37 C37   -11.2361    -2.0337    -0.0988 C
38 C38   -12.6115    -2.2564    -0.1151 C
39 C39   -13.5303    -1.2383     0.1245 C
40 C40   -13.0771     0.0554     0.3864 C
41 C41     0.3526     2.4961    -0.0955 C
42 C42     2.1786     0.4165    -0.5481 C
43 C43     1.7198     2.7498    -0.1642 C
44 C44     2.6691     1.7325    -0.3967 C
45 H45   -10.5540    -2.8503    -0.2798 H
46 H46    -0.3256     3.3150     0.0905 H
47 C47     4.1095     1.9472    -0.4720 C
48 C48     4.8295     3.0063    -0.9993 C
49 S49     5.1742     0.6981     0.0843 S
50 C50     6.2182     2.8087    -0.9530 C
51 H51     4.3661     3.8803    -1.4385 H
52 C52     6.5872     1.5940    -0.3851 C
53 H53     2.8728    -0.3924    -0.7552 H
54 Cl54   -13.1970    -3.8625    -0.4427 Cl
55 Cl55     2.2063     4.3990     0.1139 Cl
56 H56     6.9245     3.5209    -1.3582 H
57 C57     7.8907     1.0318    -0.1766 C
58 C58     8.2377    -0.2909     0.0686 C
59 N59     9.0702     1.7620    -0.2125 N
60 C60     9.6473    -0.3917     0.1603 C
61 C61    10.2088     0.9301     0.0004 C
62 O62    11.3509     1.3638     0.0449 O
63 C63     7.6810    -1.6213     0.1516 C
64 C64    10.0030    -1.7305     0.2669 C
65 N65     8.8242    -2.4645     0.2676 N
66 C66    11.3147    -2.3125     0.3442 C
67 C67    11.7182    -3.6271     0.1468 C
68 S68    12.6949    -1.3058     0.6992 S
69 C69    13.1098    -3.8098     0.2893 C
70 H70    11.0443    -4.4298    -0.1199 H
71 C71    13.7587    -2.6395     0.5987 C
72 H72    13.6123    -4.7625     0.1642 H
73 O73     6.5345    -2.0489     0.1611 O
74 C74     9.2378     3.1934    -0.2825 C
75 H75     9.1126     3.5697    -1.3041 H
76 H76     8.5366     3.7013     0.3860 H
77 H77    10.2629     3.4024     0.0329 H
78 C78     8.6430    -3.8757     0.5071 C
79 H79     8.8921    -4.4747    -0.3761 H
80 H80     9.2429    -4.2073     1.3594 H
81 H81     7.5825    -4.0194     0.7274 H
82 H82   -13.7830     0.8590     0.5713 H
83 H83   -14.5939    -1.4535     0.1065 H
84 H84    14.8190    -2.4936     0.7639 H
@<TRIPOS>BOND
1 1 2 2
2 1 6 Ar
3 1 7 1
4 2 3 Ar
5 2 13 1
6 3 4 Ar
7 3 11 1
8 4 5 2
9 4 8 1
10 5 6 Ar
11 5 14 1
12 6 9 1
13 9 12 1
14 9 19 2
15 10 11 1
16 10 13 1
17 10 15 2
18 11 17 2
19 12 14 1
20 12 16 2
21 17 18 1
22 17 34 1
23 18 21 Ar
24 18 23 2
25 19 20 1
26 19 35 1
27 20 22 Ar
28 20 24 2
29 21 25 1
30 21 33 1
31 22 29 1
32 22 36 1
33 25 26 1
34 25 27 1
35 25 28 1
36 29 30 1
37 29 31 1
38 29 32 1
39 33 34 Ar
40 33 40 2
41 34 37 Ar
42 35 36 Ar
43 35 41 Ar
44 36 42 2
45 37 38 Ar
46 37 45 1
47 38 39 Ar
48 38 54 1
49 39 40 Ar
50 39 83 1
51 40 82 1
52 41 43 Ar
53 41 46 1
54 42 44 Ar
55 42 53 1
56 43 44 Ar
57 43 55 1
58 44 47 1
59 47 48 2
60 47 49 1
61 48 50 Ar
62 48 51 1
63 49 52 1
64 50 52 Ar
65 50 56 1
66 52 57 Ar
67 57 58 Ar
68 57 59 1
69 58 60 Ar
70 58 63 Ar
71 59 61 1
72 59 74 1
73 60 61 Ar
74 60 64 Ar
75 61 62 2
76 63 65 1
77 63 73 2
78 64 65 1
79 64 66 Ar
80 65 78 1
81 66 67 Ar
82 66 68 1
83 67 69 Ar
84 67 70 1
85 68 71 1
86 69 71 2
87 69 72 1
88 71 84 1
89 74 75 1
90 74 76 1
91 74 77 1
92 78 79 1
93 78 80 1
94 78 81 1
