# PCICITVT
# Created by GaussView 6.1.1
#

#
#

@<TRIPOS>MOLECULE
Molecule Name
70 78
SMALL
NO_CHARGES


@<TRIPOS>ATOM
1 C1     3.4697     0.8149     0.7724 C
2 C2     4.8355     0.9268     0.6508 C
3 C3     5.7216    -0.1118     0.3070 C
4 C4     5.1770    -1.3740     0.0221 C
5 C5     3.8110    -1.4853     0.1408 C
6 C6     2.9284    -0.4565     0.5229 C
7 H7     2.8556     1.6590     1.0509 H
8 H8     5.7901    -2.2156    -0.2663 H
9 C9     1.5900    -1.0206     0.4519 C
10 C10     6.8195     1.9280     0.5873 C
11 C11     7.0452     0.4873     0.2368 C
12 C12     1.8071    -2.4384     0.0173 C
13 O13     5.4917     2.1184     0.8394 O
14 O14     3.1462    -2.6553    -0.1319 O
15 O15     7.5917     2.8440     0.7185 O
16 O16     1.0310    -3.3447    -0.1547 O
17 C17     8.2842    -0.0354    -0.0333 C
18 C18     8.5626    -1.5275    -0.0399 C
19 C19     0.3484    -0.5012     0.7245 C
20 C20     0.1471     0.8083     1.4647 C
21 N21     9.8969    -1.6844    -0.2935 N
22 N22    -1.2030     0.9936     1.5946 N
23 O23     7.7886    -2.4462     0.1874 O
24 O24     0.9934     1.5624     1.9212 O
25 C25    10.5684    -2.9588    -0.3614 C
26 H26     9.8331    -3.7399    -0.1630 H
27 H27    10.9993    -3.1096    -1.3568 H
28 H28    11.3640    -3.0089     0.3891 H
29 C29    -1.8109     2.1226     2.2554 C
30 H30    -2.4350     2.6835     1.5518 H
31 H31    -2.4255     1.7843     3.0960 H
32 H32    -1.0127     2.7674     2.6260 H
33 C33    10.5086    -0.4564    -0.4826 C
34 C34     9.5695     0.5903    -0.3170 C
35 C35    -0.9942    -0.9938     0.4629 C
36 C36    -1.8966    -0.0412     0.9942 C
37 C37     9.9913     1.9058    -0.5340 C
38 C38    11.3218     2.1291    -0.8745 C
39 C39    12.2439     1.0921    -1.0058 C
40 C40    11.8341    -0.2279    -0.8134 C
41 C41    -1.5319    -2.0812    -0.2286 C
42 C42    -3.2651    -0.1716     0.8930 C
43 C43    -2.9117    -2.2137    -0.3433 C
44 C44    -3.8096    -1.2849     0.2218 C
45 H45    13.2767     1.3068    -1.2630 H
46 H46     9.3074     2.7357    -0.4329 H
47 H47    -0.8902    -2.8233    -0.6804 H
48 C48    -5.2615    -1.4021     0.1276 C
49 C49    -6.0650    -2.5113     0.2555 C
50 S50    -6.2181     0.0315    -0.1224 S
51 C51    -7.4368    -2.1890     0.1610 C
52 H52    -5.6993    -3.5127     0.4462 H
53 C53    -7.7136    -0.8475    -0.0452 C
54 C54    -9.0036    -0.2349    -0.1958 C
55 H55    -9.8392    -0.9335    -0.1879 H
56 C56    -9.2310     1.0922    -0.3392 C
57 H57    -8.3932     1.7888    -0.3363 H
58 C58   -10.5177     1.7112    -0.4993 C
59 C59   -10.7901     3.0619    -0.6291 C
60 S60   -12.0155     0.8255    -0.5594 S
61 C61   -12.1650     3.3840    -0.7725 C
62 C62   -12.9439     2.2617    -0.7513 C
63 H63   -12.5448     4.3935    -0.8845 H
64 H64   -14.0224     2.1980    -0.8396 H
65 Cl65    -8.6675    -3.3944     0.3067 Cl
66 Cl66    -9.5624     4.2795    -0.6182 Cl
67 H67    12.5382    -1.0458    -0.9299 H
68 H68    -3.9223     0.5603     1.3526 H
69 Cl69    11.8523     3.7721    -1.1399 Cl
70 Cl70    -3.4848    -3.5688    -1.2799 Cl
@<TRIPOS>BOND
1 1 2 2
2 1 6 Ar
3 1 7 1
4 2 3 Ar
5 2 13 1
6 3 4 Ar
7 3 11 1
8 4 5 2
9 4 8 1
10 5 6 Ar
11 5 14 1
12 6 9 1
13 9 12 1
14 9 19 2
15 10 11 1
16 10 13 1
17 10 15 2
18 11 17 2
19 12 14 1
20 12 16 2
21 17 18 1
22 17 34 1
23 18 21 Ar
24 18 23 2
25 19 20 1
26 19 35 1
27 20 22 Ar
28 20 24 2
29 21 25 1
30 21 33 1
31 22 29 1
32 22 36 1
33 25 26 1
34 25 27 1
35 25 28 1
36 29 30 1
37 29 31 1
38 29 32 1
39 33 34 Ar
40 33 40 2
41 34 37 Ar
42 35 36 Ar
43 35 41 Ar
44 36 42 2
45 37 38 Ar
46 37 46 1
47 38 39 Ar
48 38 69 1
49 39 40 Ar
50 39 45 1
51 40 67 1
52 41 43 Ar
53 41 47 1
54 42 44 Ar
55 42 68 1
56 43 44 Ar
57 43 70 1
58 44 48 1
59 48 49 2
60 48 50 1
61 49 51 Ar
62 49 52 1
63 50 53 1
64 51 53 2
65 51 65 1
66 53 54 Ar
67 54 55 1
68 54 56 2
69 56 57 1
70 56 58 Ar
71 58 59 2
72 58 60 1
73 59 61 Ar
74 59 66 1
75 60 62 1
76 61 62 2
77 61 63 1
78 62 64 1
