# PCNDTI-BTI
# Created by GaussView 6.1.1
#

#
#

@<TRIPOS>MOLECULE
Molecule Name
52 59
SMALL
NO_CHARGES


@<TRIPOS>ATOM
1 C1    -4.5897     0.3453    -0.0919 C
2 C2    -3.1638     0.3395    -0.0857 C
3 C3    -2.3321    -0.7505     0.1352 C
4 C4    -5.4333    -0.7380     0.1159 C
5 C5    -2.6197    -2.1695     0.3697 C
6 C6    -5.1568    -2.1602     0.3480 C
7 C7    -6.7955    -0.3244     0.0712 C
8 C8    -0.9685    -0.3495     0.1039 C
9 C9    -6.9748     1.0249    -0.1758 C
10 C10    -0.7711     0.9958    -0.1446 C
11 C11    -3.8966    -4.2037     0.4355 C
12 H12    -4.7802    -4.5859    -0.0716 H
13 H13    -2.9927    -4.5918    -0.0293 H
14 H14    -3.9229    -4.5085     1.4866 H
15 S15    -5.4641     1.8363    -0.3481 S
16 S16    -2.2722     1.8213    -0.3395 S
17 N17    -3.8889    -2.7397     0.3238 N
18 O18    -6.1297    -2.8876     0.5413 O
19 O19    -1.6514    -2.8993     0.5816 O
20 C20    -8.3476     1.4112    -0.2302 C
21 C21    -9.1682     0.3239    -0.0159 C
22 S22    -8.3077    -1.1404     0.2456 S
23 H23   -10.2527     0.3326    -0.0006 H
24 C24    -8.8272     2.7253    -0.4692 C
25 N25    -9.2085     3.8058    -0.6665 N
26 C26     5.2821    -0.3891    -0.0906 C
27 C27     6.5128    -1.0830    -0.3018 C
28 C28     7.7895    -0.5432    -0.3183 C
29 C29     5.1017     0.9015     0.3871 C
30 C30     8.2246     0.8460    -0.0859 C
31 C31     6.0960     1.8853     0.8616 C
32 C32     3.7287     1.2571     0.4761 C
33 C33     8.7827    -1.5189    -0.6353 C
34 C34     2.8745     0.2648     0.0649 C
35 C35     8.2631    -2.7628    -0.8339 C
36 C36     8.2397     2.9197     1.1433 C
37 H37     7.8329     3.2264     2.1056 H
38 H38     9.2813     2.6238     1.2481 H
39 H39     8.1715     3.7586     0.4427 H
40 S40     3.7651    -1.1393    -0.4512 S
41 S41     6.5534    -2.7785    -0.6571 S
42 N42     7.4714     1.7689     0.6543 N
43 O43     5.6796     2.8840     1.4418 O
44 O44     9.3435     1.1751    -0.4623 O
45 H45     9.8395    -1.2887    -0.6967 H
46 H46     8.7891    -3.6820    -1.0662 H
47 S47     0.5251    -1.1833     0.3078 S
48 C48     0.5992     1.3738    -0.2021 C
49 C49     1.4316     0.2805     0.0294 C
50 C50     1.0488     2.6807    -0.5155 C
51 N51     1.3867     3.7610    -0.7825 N
52 H52     3.3995     2.2115     0.8678 H
@<TRIPOS>BOND
1 1 2 Ar
2 1 4 Ar
3 1 15 1
4 2 3 Ar
5 2 16 1
6 3 5 1
7 3 8 Ar
8 4 6 1
9 4 7 Ar
10 5 17 1
11 5 19 2
12 6 17 1
13 6 18 2
14 7 9 2
15 7 22 1
16 8 10 2
17 8 47 1
18 9 15 1
19 9 20 Ar
20 10 16 1
21 10 48 Ar
22 11 12 1
23 11 13 1
24 11 14 1
25 11 17 1
26 20 21 2
27 20 24 Ar
28 21 22 1
29 21 23 1
30 24 25 3
31 26 27 Ar
32 26 29 Ar
33 26 40 1
34 27 28 Ar
35 27 41 1
36 28 30 1
37 28 33 Ar
38 29 31 1
39 29 32 Ar
40 30 42 1
41 30 44 2
42 31 42 1
43 31 43 2
44 32 34 2
45 32 52 1
46 33 35 2
47 33 45 1
48 34 40 1
49 34 49 Ar
50 35 41 1
51 35 46 1
52 36 37 1
53 36 38 1
54 36 39 1
55 36 42 1
56 47 49 1
57 48 49 Ar
58 48 50 Ar
59 50 51 3
