# PCNDTI
# Created by GaussView 6.1.1
#

#
#

@<TRIPOS>MOLECULE
Molecule Name
31 35
SMALL
NO_CHARGES


@<TRIPOS>ATOM
1 C1     0.7127    -0.3455    -0.0329 C
2 C2    -0.7127    -0.3455    -0.0323 C
3 C3    -1.5506     0.7597     0.0070 C
4 C4     1.5506     0.7598     0.0064 C
5 C5    -1.2689     2.1983     0.0081 C
6 C6     1.2686     2.1984     0.0068 C
7 C7     2.9151     0.3506     0.0328 C
8 C8    -2.9151     0.3505     0.0332 C
9 C9     3.0990    -1.0208     0.0033 C
10 C10    -3.0990    -1.0209     0.0027 C
11 C11     0.0000     4.2209    -0.2430 C
12 H12     0.8924     4.5215    -0.7879 H
13 H13    -0.8964     4.5223    -0.7806 H
14 H14     0.0044     4.6906     0.7459 H
15 S15     1.5922    -1.8560    -0.0463 S
16 S16    -1.5922    -1.8560    -0.0473 S
17 N17    -0.0002     2.7590    -0.1170 N
18 O18     2.2385     2.9512     0.0865 O
19 O19    -2.2390     2.9507     0.0891 O
20 C20     4.4736    -1.4047     0.0151 C
21 C21     5.2903    -0.2940     0.0560 C
22 S22     4.4230     1.1904     0.0794 S
23 H23     6.3745    -0.2964     0.0760 H
24 C24     4.9531    -2.7394    -0.0100 C
25 N25     5.3303    -3.8387    -0.0314 N
26 S26    -4.4230     1.1903     0.0804 S
27 C27    -4.4736    -1.4048     0.0136 C
28 C28    -5.2903    -0.2940     0.0552 C
29 C29    -4.9530    -2.7394    -0.0119 C
30 N30    -5.3296    -3.8390    -0.0307 N
31 H31    -6.3745    -0.2964     0.0749 H
@<TRIPOS>BOND
1 1 2 Ar
2 1 4 Ar
3 1 15 1
4 2 3 Ar
5 2 16 1
6 3 5 1
7 3 8 Ar
8 4 6 1
9 4 7 Ar
10 5 17 1
11 5 19 2
12 6 17 1
13 6 18 2
14 7 9 2
15 7 22 1
16 8 10 2
17 8 26 1
18 9 15 1
19 9 20 Ar
20 10 16 1
21 10 27 Ar
22 11 12 1
23 11 13 1
24 11 14 1
25 11 17 1
26 20 21 2
27 20 24 Ar
28 21 22 1
29 21 23 1
30 24 25 3
31 26 28 1
32 27 28 2
33 27 29 Ar
34 28 31 1
35 29 30 3
