# PCNI2-V
# Created by GaussView 6.1.1
#

#
#

@<TRIPOS>MOLECULE
Molecule Name
46 51
SMALL
NO_CHARGES


@<TRIPOS>ATOM
1 C1     4.9865     1.4890     0.3693 C
2 C2     5.0394     0.0461     0.0581 C
3 C3     4.0056    -0.8583    -0.1232 C
4 C4     2.5987    -0.6095    -0.0713 C
5 C5     2.5200     1.9984    -0.0210 C
6 C6     1.9806     0.6340    -0.0319 C
7 N7     3.8744     2.3007     0.0821 N
8 O8     1.7061     2.9175    -0.0814 O
9 O9     5.9915     2.0194     0.8101 O
10 C10     4.1638     3.7403     0.1336 C
11 H11     5.1967     3.8956    -0.1709 H
12 H12     3.4706     4.2522    -0.5306 H
13 H13     4.0328     4.1227     1.1504 H
14 C14     6.3249    -0.5958    -0.0374 C
15 C15     0.5702     0.4798    -0.0309 C
16 S16     4.6073    -2.4618    -0.4104 S
17 S17     1.4583    -1.9364    -0.0871 S
18 C18     6.2279    -1.9404    -0.2919 C
19 C19     0.1372    -0.8338    -0.0497 C
20 S20    -0.7512     1.5825    -0.0075 S
21 C21    -1.8920     0.2548    -0.0153 C
22 C22    -1.2724    -0.9896    -0.0310 C
23 C23    -3.2967     0.5060    -0.0322 C
24 C24    -4.3301    -0.4031     0.1226 C
25 C25    -4.2754    -1.8593     0.3651 C
26 C26    -1.8106    -2.3531    -0.0602 C
27 N27    -3.1646    -2.6583     0.0397 N
28 C28    -3.4563    -4.0984     0.0358 C
29 H29    -4.4848    -4.2415    -0.2894 H
30 H30    -2.7536    -4.5872    -0.6355 H
31 H31    -3.3419    -4.5165     1.0405 H
32 O32    -0.9965    -3.2692    -0.1582 O
33 O33    -5.2788    -2.4106     0.7841 O
34 S34    -3.8942     2.1234    -0.2335 S
35 C35    -5.5399     1.6141    -0.1176 C
36 C36    -5.6112     0.2429     0.0779 C
37 C37    -6.8848    -0.3890     0.1702 C
38 N38    -7.9832    -0.7673     0.2054 N
39 C39    -6.6548     2.5301    -0.2260 C
40 C40    -6.5661     3.8542    -0.4197 C
41 H41    -7.6331     2.0617    -0.1362 H
42 H42    -5.6145     4.3731    -0.5169 H
43 C43     7.6074     0.0209     0.0618 C
44 N44     8.7034     0.4037     0.0969 N
45 H45     7.0453    -2.6372    -0.4238 H
46 H46    -7.4608     4.4642    -0.4866 H
@<TRIPOS>BOND
1 1 2 1
2 1 7 1
3 1 9 2
4 2 3 2
5 2 14 Ar
6 3 4 Ar
7 3 16 1
8 4 6 Ar
9 4 17 1
10 5 6 1
11 5 7 1
12 5 8 2
13 6 15 Ar
14 7 10 1
15 10 11 1
16 10 12 1
17 10 13 1
18 14 18 2
19 14 43 Ar
20 15 19 2
21 15 20 1
22 16 18 1
23 17 19 1
24 18 45 1
25 19 22 Ar
26 20 21 1
27 21 22 Ar
28 21 23 Ar
29 22 26 1
30 23 24 2
31 23 34 1
32 24 25 1
33 24 36 Ar
34 25 27 1
35 25 33 2
36 26 27 1
37 26 32 2
38 27 28 1
39 28 29 1
40 28 30 1
41 28 31 1
42 34 35 1
43 35 36 Ar
44 35 39 Ar
45 36 37 Ar
46 37 38 3
47 39 40 2
48 39 41 1
49 40 42 1
50 40 46 1
51 43 44 3
