# PCNI-BTI
# Created by GaussView 6.1.1
#

#
#

@<TRIPOS>MOLECULE
Molecule Name
46 51
SMALL
NO_CHARGES


@<TRIPOS>ATOM
1 C1     2.7406     0.4413     0.0687 C
2 C2     3.9935     1.1219    -0.0652 C
3 C3     5.2275     0.5466    -0.2852 C
4 C4     2.5410    -0.8859     0.3826 C
5 C5     5.5631    -0.8821    -0.4425 C
6 C6     3.5487    -1.9150     0.7132 C
7 C7     1.1434    -1.2088     0.4601 C
8 C8     6.2521     1.5458    -0.4279 C
9 C9     0.3089    -0.1300     0.2018 C
10 C10     5.7750     2.8263    -0.3009 C
11 C11     5.5732    -3.1504     0.4207 C
12 H12     5.1056    -3.9378    -0.1775 H
13 H13     6.6040    -3.0148     0.1035 H
14 H14     5.5335    -3.4304     1.4742 H
15 S15     1.2435     1.2777    -0.1581 S
16 S16     4.0942     2.8529    -0.0224 S
17 N17     4.8571    -1.8814     0.2352 N
18 O18     3.1848    -2.8906     1.3571 O
19 O19     6.5601    -1.1740    -1.0865 O
20 H20     6.3433     3.7482    -0.3444 H
21 C21    -4.8887    -0.9220    -0.3122 C
22 C22    -3.5910    -0.3706    -0.0805 C
23 C23    -3.2694     0.9257     0.2980 C
24 C24    -6.0854    -0.2330    -0.4354 C
25 C25    -4.1444     2.0695     0.6231 C
26 C26    -6.3573     1.2106    -0.3102 C
27 C27    -7.1766    -1.0999    -0.7453 C
28 C28    -1.8692     1.1063     0.4416 C
29 C29    -6.8081    -2.4087    -0.8352 C
30 C30    -1.1322    -0.0246     0.1839 C
31 C31    -6.1601     3.3608     0.7563 C
32 H32    -7.2269     3.1876     0.8829 H
33 H33    -5.7194     3.7141     1.6869 H
34 H34    -6.0075     4.1161    -0.0217 H
35 S35    -5.1246    -2.6204    -0.5621 S
36 S36    -2.1744    -1.3458    -0.2570 S
37 N37    -5.5194     2.0933     0.3868 N
38 O38    -7.4194     1.6406    -0.7448 O
39 O39    -3.6215     3.0682     1.1099 O
40 H40    -8.1920    -0.7472    -0.8803 H
41 H41    -1.4396     2.0510     0.7560 H
42 H42    -7.4330    -3.2710    -1.0382 H
43 C43     7.6409     1.3084    -0.6356 C
44 N44     8.7880     1.2031    -0.7878 N
45 C45     0.6178    -2.4929     0.7713 C
46 N46     0.0915    -3.5057     0.9935 N
@<TRIPOS>BOND
1 1 2 Ar
2 1 4 2
3 1 15 1
4 2 3 2
5 2 16 1
6 3 5 1
7 3 8 Ar
8 4 6 1
9 4 7 Ar
10 5 17 1
11 5 19 2
12 6 17 1
13 6 18 2
14 7 9 Ar
15 7 45 Ar
16 8 10 2
17 8 43 Ar
18 9 15 1
19 9 30 Ar
20 10 16 1
21 10 20 1
22 11 12 1
23 11 13 1
24 11 14 1
25 11 17 1
26 21 22 Ar
27 21 24 Ar
28 21 35 1
29 22 23 Ar
30 22 36 1
31 23 25 1
32 23 28 Ar
33 24 26 1
34 24 27 Ar
35 25 37 1
36 25 39 2
37 26 37 1
38 26 38 2
39 27 29 2
40 27 40 1
41 28 30 2
42 28 41 1
43 29 35 1
44 29 42 1
45 30 36 1
46 31 32 1
47 31 33 1
48 31 34 1
49 31 37 1
50 43 44 3
51 45 46 3
