# PCNI2-BTI
# Created by GaussView 6.1.1
#

#
#

@<TRIPOS>MOLECULE
Molecule Name
124 141
SMALL
NO_CHARGES


@<TRIPOS>ATOM
1 C1    -9.7858    -3.4158    -0.9983 C
2 C2    -9.4005    -2.0328    -0.6455 C
3 C3   -10.2075    -0.9383    -0.3883 C
4 C4   -11.6327    -0.8785    -0.3684 C
5 C5   -12.2732    -3.4064    -0.4463 C
6 C6   -12.5062    -1.9601    -0.3853 C
7 N7   -11.0228    -3.9840    -0.6471 N
8 O8   -13.2584    -4.1339    -0.3428 O
9 O9    -8.9523    -4.1274    -1.5316 O
10 C10   -11.0493    -5.4498    -0.7476 C
11 H11   -10.0567    -5.8300    -0.5151 H
12 H12   -11.7941    -5.8260    -0.0494 H
13 H13   -11.3195    -5.7609    -1.7612 H
14 C14    -8.0065    -1.6907    -0.6063 C
15 C15   -13.8468    -1.5067    -0.2985 C
16 S16    -9.2682     0.4860    -0.0812 S
17 S17   -12.4577     0.6620    -0.2690 S
18 C18    -7.7696    -0.3527    -0.3137 C
19 C19   -13.9847    -0.1314    -0.2392 C
20 S20   -15.3742    -2.2993    -0.2569 S
21 C21   -16.1990    -0.7587    -0.1663 C
22 C22   -15.3272     0.3227    -0.1742 C
23 C23   -17.6241    -0.7005    -0.0682 C
24 C24   -18.4410     0.4143    -0.1649 C
25 C25   -18.0848     1.8267    -0.4118 C
26 C26   -15.5564     1.7702    -0.1015 C
27 N27   -16.8146     2.3630    -0.1342 N
28 C28   -16.7851     3.8318    -0.1085 C
29 H29   -17.7491     4.1901     0.2468 H
30 H30   -15.9760     4.1460     0.5475 H
31 H31   -16.6069     4.2303    -1.1119 H
32 O32   -14.5599     2.4864    -0.0343 O
33 O33   -18.9634     2.5839    -0.7861 O
34 S34   -18.5515    -2.1492     0.1702 S
35 C35   -20.0223    -1.2844     0.1432 C
36 C36   -19.8318     0.0612    -0.0454 C
37 C37    -6.9299    -2.5976    -0.8100 C
38 N38    -5.9706    -3.2440    -0.9280 N
39 C39    -6.5401     0.3874    -0.1792 C
40 C40    -6.4323     1.7605    -0.1290 C
41 S41    -4.9714    -0.3531    -0.0204 S
42 C42    -5.1107     2.2322     0.0390 C
43 H43    -7.2669     2.4469    -0.2172 H
44 C44    -4.1966     1.1880     0.1265 C
45 C45    -4.9253     3.6970     0.1176 C
46 C46    -2.7833     1.2821     0.2930 C
47 N47    -3.6805     4.3332     0.1832 N
48 O48    -5.9286     4.3981     0.1109 O
49 C49    -2.0011     2.4306     0.2450 C
50 S50    -1.8233    -0.1334     0.5599 S
51 C51    -2.3695     3.8513     0.0615 C
52 C52    -3.7907     5.7980     0.2339 C
53 C53    -0.6271     2.1376     0.3995 C
54 C54    -0.3528     0.7995     0.5848 C
55 O55    -1.4641     4.6507    -0.1304 O
56 H56    -4.5697     6.0637     0.9471 H
57 H57    -2.8262     6.2038     0.5267 H
58 H58    -4.0688     6.1930    -0.7476 H
59 H59     0.1211     2.9221     0.3853 H
60 C60     0.9599     0.2273     0.7495 C
61 S61     2.3396     1.1979     0.3531 S
62 C62     1.3634    -1.0288     1.1864 C
63 C63     3.4513    -0.0605     0.7846 C
64 C64     2.7888    -1.2011     1.2043 C
65 C65     0.4088    -2.0208     1.5441 C
66 C66     4.8575     0.1606     0.6957 C
67 C67     3.3462    -2.4774     1.7005 C
68 N68    -0.4641    -2.7518     1.7803 N
69 S69     5.4885     1.7616     0.3746 S
70 C70     5.8550    -0.8020     0.8061 C
71 N71     4.6331    -2.9364     1.3706 N
72 O72     2.6176    -3.2109     2.3459 O
73 C73     7.0983     1.1527     0.3766 C
74 C74     7.1284    -0.2115     0.6084 C
75 C75     5.7994    -2.2466     1.0516 C
76 C76     4.8387    -4.3655     1.6444 C
77 C77     8.3729     1.7473     0.1995 C
78 S78     8.7380    -0.8218     0.5982 S
79 O79     6.8619    -2.8615     0.9968 O
80 H80     3.8939    -4.8849     1.4972 H
81 H81     5.6066    -4.7353     0.9682 H
82 H82     5.1686    -4.5156     2.6768 H
83 C83     9.3693     0.7811     0.2863 C
84 C84     8.4263     3.1891    -0.0590 C
85 C85    10.7700     0.9884     0.1155 C
86 N86     9.6081     3.9191    -0.1490 N
87 O87     7.3515     3.7745    -0.1724 O
88 C88    11.4554     2.1879     0.0385 C
89 S89    11.8462    -0.3670     0.0060 S
90 C90    10.9384     3.5689     0.1409 C
91 C91     9.4075     5.3614    -0.3460 C
92 C92    12.8705     1.9873    -0.1045 C
93 C93    13.2441     0.6480    -0.1432 C
94 O94    11.7283     4.4619     0.3956 O
95 H95    10.3090     5.7780    -0.7907 H
96 H96     8.5432     5.5004    -0.9919 H
97 H97     9.2228     5.8583     0.6111 H
98 C98    13.8351     3.0225    -0.2470 C
99 C99    14.5344     0.0247    -0.2885 C
100 N100    14.7076     3.7759    -0.4007 N
101 C101    14.7793    -1.3309    -0.2701 C
102 S102    16.0233     0.9046    -0.5152 S
103 C103    16.1395    -1.6794    -0.4395 C
104 H104    14.0197    -2.0938    -0.1403 H
105 C105    16.9458    -0.5578    -0.5875 C
106 C106    16.4673    -3.1205    -0.4570 C
107 C107    18.3627    -0.5140    -0.7607 C
108 N108    17.7599    -3.6293    -0.6231 N
109 O109    15.5426    -3.9139    -0.3322 O
110 C110    19.2573    -1.5754    -0.7328 C
111 S111    19.1929     0.9907    -0.9938 S
112 C112    19.0270    -3.0249    -0.5688 C
113 C113    17.8065    -5.0971    -0.6705 C
114 C114    20.6074    -1.1429    -0.8924 C
115 C115    20.7205     0.2055    -1.0483 C
116 O116    20.0053    -3.7482    -0.4422 O
117 H117    16.9230    -5.4531    -1.1962 H
118 H118    18.7212    -5.3960    -1.1769 H
119 H119    17.8075    -5.5147     0.3410 H
120 H120    21.4386    -1.8364    -0.8899 H
121 C121   -20.9516     0.9447    -0.0626 C
122 N122   -21.9385     1.5564    -0.0344 N
123 H123   -20.9673    -1.7942     0.2772 H
124 H124    21.6201     0.7890    -1.1962 H
@<TRIPOS>BOND
1 1 2 1
2 1 7 1
3 1 9 2
4 2 3 2
5 2 14 Ar
6 3 4 Ar
7 3 16 1
8 4 6 Ar
9 4 17 1
10 5 6 1
11 5 7 1
12 5 8 2
13 6 15 Ar
14 7 10 1
15 10 11 1
16 10 12 1
17 10 13 1
18 14 18 Ar
19 14 37 Ar
20 15 19 2
21 15 20 1
22 16 18 1
23 17 19 1
24 18 39 Ar
25 19 22 Ar
26 20 21 1
27 21 22 Ar
28 21 23 Ar
29 22 26 1
30 23 24 2
31 23 34 1
32 24 25 1
33 24 36 Ar
34 25 27 1
35 25 33 2
36 26 27 1
37 26 32 2
38 27 28 1
39 28 29 1
40 28 30 1
41 28 31 1
42 34 35 1
43 35 36 2
44 35 123 1
45 36 121 Ar
46 37 38 3
47 39 40 2
48 39 41 1
49 40 42 Ar
50 40 43 1
51 41 44 1
52 42 44 Ar
53 42 45 1
54 44 46 Ar
55 45 47 1
56 45 48 2
57 46 49 Ar
58 46 50 1
59 47 51 1
60 47 52 1
61 49 51 1
62 49 53 Ar
63 50 54 1
64 51 55 2
65 52 56 1
66 52 57 1
67 52 58 1
68 53 54 2
69 53 59 1
70 54 60 Ar
71 60 61 1
72 60 62 Ar
73 61 63 1
74 62 64 Ar
75 62 65 Ar
76 63 64 2
77 63 66 Ar
78 64 67 1
79 65 68 3
80 66 69 1
81 66 70 Ar
82 67 71 1
83 67 72 2
84 69 73 1
85 70 74 Ar
86 70 75 1
87 71 75 1
88 71 76 1
89 73 74 2
90 73 77 Ar
91 74 78 1
92 75 79 2
93 76 80 1
94 76 81 1
95 76 82 1
96 77 83 Ar
97 77 84 1
98 78 83 1
99 83 85 Ar
100 84 86 1
101 84 87 2
102 85 88 2
103 85 89 1
104 86 90 1
105 86 91 1
106 88 90 1
107 88 92 Ar
108 89 93 1
109 90 94 2
110 91 95 1
111 91 96 1
112 91 97 1
113 92 93 Ar
114 92 98 Ar
115 93 99 Ar
116 98 100 3
117 99 101 2
118 99 102 1
119 101 103 Ar
120 101 104 1
121 102 105 1
122 103 105 Ar
123 103 106 1
124 105 107 Ar
125 106 108 1
126 106 109 2
127 107 110 Ar
128 107 111 1
129 108 112 1
130 108 113 1
131 110 112 1
132 110 114 Ar
133 111 115 1
134 112 116 2
135 113 117 1
136 113 118 1
137 113 119 1
138 114 115 2
139 114 120 1
140 115 124 1
141 121 122 3
