# PCNI2-T
# Created by GaussView 6.1.1
#

#
#

@<TRIPOS>MOLECULE
Molecule Name
49 55
SMALL
NO_CHARGES


@<TRIPOS>ATOM
1 C1     5.5714    -1.8296    -0.3737 C
2 C2     5.7829    -0.4104    -0.0247 C
3 C3     4.8558     0.6012     0.1678 C
4 C4     3.4309     0.5169     0.0916 C
5 C5     3.0547    -2.0620    -0.0393 C
6 C6     2.6747    -0.6456     0.0065 C
7 N7     4.3677    -2.5149    -0.1293 N
8 O8     2.1403    -2.8830    -0.0207 O
9 O9     6.5181    -2.4619    -0.8098 O
10 C10     4.4920    -3.9761    -0.2179 C
11 H11     5.4917    -4.2578     0.1065 H
12 H12     3.7268    -4.4230     0.4132 H
13 H13     4.3467    -4.3126    -1.2489 H
14 C14     7.1315     0.0781     0.1040 C
15 C15     1.2915    -0.3306    -0.0065 C
16 S16     5.6318     2.1179     0.5051 S
17 S17     2.4493     1.9647     0.1360 S
18 C18     7.1844     1.4181     0.3929 C
19 C19     1.0117     1.0228     0.0473 C
20 S20    -0.1481    -1.2726    -0.0820 S
21 C21    -1.1287     0.1772    -0.0455 C
22 C22    -0.3702     1.3408     0.0145 C
23 C23    -2.5522     0.0897    -0.0397 C
24 C24    -3.4741     1.1079    -0.1987 C
25 C25    -3.2364     2.5443    -0.4537 C
26 C26    -0.7522     2.7538     0.0763 C
27 N27    -2.0593     3.2101    -0.0645 N
28 C28    -2.1868     4.6736    -0.0486 C
29 H29    -3.2110     4.9282     0.2163 H
30 H30    -1.4773     5.0698     0.6749 H
31 H31    -1.9620     5.0906    -1.0349 H
32 O32     0.1539     3.5708     0.2301 O
33 O33    -4.1418     3.2048    -0.9323 O
34 S34    -3.3348    -1.4443     0.1659 S
35 C35    -4.9196    -0.7549     0.0232 C
36 C36    -4.8259     0.6199    -0.1656 C
37 C37    -6.0598    -1.6323     0.1198 C
38 C38    -6.0169    -3.0178     0.1113 C
39 S39    -7.7031    -1.0810     0.2913 S
40 C40    -7.2865    -3.6188     0.2435 C
41 C41    -8.2888    -2.6881     0.3534 C
42 C42    -5.9893     1.4319    -0.2649 C
43 N43    -7.0008     2.0041    -0.3003 N
44 H44    -7.4550    -4.6897     0.2511 H
45 H45    -5.0967    -3.5832    -0.0010 H
46 C46     8.3373    -0.6776     0.0041 C
47 N47     9.3838    -1.1804    -0.0280 N
48 H48     8.0736     2.0136     0.5534 H
49 H49    -9.3521    -2.8635     0.4593 H
@<TRIPOS>BOND
1 1 2 1
2 1 7 1
3 1 9 2
4 2 3 2
5 2 14 Ar
6 3 4 Ar
7 3 16 1
8 4 6 Ar
9 4 17 1
10 5 6 1
11 5 7 1
12 5 8 2
13 6 15 Ar
14 7 10 1
15 10 11 1
16 10 12 1
17 10 13 1
18 14 18 2
19 14 46 Ar
20 15 19 2
21 15 20 1
22 16 18 1
23 17 19 1
24 18 48 1
25 19 22 Ar
26 20 21 1
27 21 22 Ar
28 21 23 Ar
29 22 26 1
30 23 24 2
31 23 34 1
32 24 25 1
33 24 36 Ar
34 25 27 1
35 25 33 2
36 26 27 1
37 26 32 2
38 27 28 1
39 28 29 1
40 28 30 1
41 28 31 1
42 34 35 1
43 35 36 Ar
44 35 37 Ar
45 36 42 Ar
46 37 38 Ar
47 37 39 1
48 38 40 Ar
49 38 45 1
50 39 41 1
51 40 41 2
52 40 44 1
53 41 49 1
54 42 43 3
55 46 47 3
