# PCNTI
# Created by GaussView 6.1.1
#

#
#

@<TRIPOS>MOLECULE
Molecule Name
27 30
SMALL
NO_CHARGES


@<TRIPOS>ATOM
1 C1    -0.2174    -0.6732     0.0288 C
2 C2    -1.5493    -1.1862     0.0460 C
3 C3    -2.7375    -0.4777    -0.0677 C
4 C4     0.1685     0.6578     0.0327 C
5 C5    -2.9735     0.9705    -0.1925 C
6 C6    -0.6180     1.8921     0.0877 C
7 C7     1.5899     0.7690     0.0056 C
8 C8    -3.8771    -1.3399    -0.0639 C
9 C9     2.2543    -0.4438    -0.0209 C
10 C10    -3.5517    -2.6564     0.0621 C
11 C11    -2.5480     3.3040     0.2118 C
12 H12    -2.5857     3.7931    -0.7669 H
13 H13    -3.5546     3.2424     0.6203 H
14 H14    -1.9021     3.8773     0.8737 H
15 S15     1.1468    -1.7662    -0.0162 S
16 S16    -1.8514    -2.8884     0.1673 S
17 N17    -2.0072     1.9456     0.0939 N
18 O18     0.0147     2.9483     0.1342 O
19 O19    -4.1013     1.3509    -0.4865 O
20 H20    -4.8933    -0.9738    -0.1436 H
21 H21    -4.2151    -3.5125     0.1058 H
22 C22     3.6751    -0.3060    -0.0476 C
23 C23     4.0381     1.0245    -0.0387 C
24 S24     2.6942     2.0964     0.0044 S
25 H25     5.0503     1.4125    -0.0529 H
26 C26     4.6036    -1.3776    -0.0799 C
27 N27     5.3527    -2.2663    -0.1065 N
@<TRIPOS>BOND
1 1 2 Ar
2 1 4 2
3 1 15 1
4 2 3 Ar
5 2 16 1
6 3 5 1
7 3 8 Ar
8 4 6 1
9 4 7 Ar
10 5 17 1
11 5 19 2
12 6 17 1
13 6 18 2
14 7 9 2
15 7 24 1
16 8 10 2
17 8 20 1
18 9 15 1
19 9 22 Ar
20 10 16 1
21 10 21 1
22 11 12 1
23 11 13 1
24 11 14 1
25 11 17 1
26 22 23 2
27 22 26 Ar
28 23 24 1
29 23 25 1
30 26 27 3
