# pDFSe
# Created by GaussView 6.1.1
#

#
#

@<TRIPOS>MOLECULE
Molecule Name
84 94
SMALL
NO_CHARGES


@<TRIPOS>ATOM
1 C1    10.6950     1.3587    -0.0222 C
2 C2     8.7731     0.0480    -0.0070 C
3 C3     9.8749    -0.8079    -0.0004 C
4 C4    11.0602    -0.0361    -0.0094 C
5 C5    10.2427    -2.2024     0.0125 C
6 C6    12.1619    -0.8900    -0.0026 C
7 N7     9.2727     1.3421    -0.0200 N
8 N8    11.6680    -2.1830     0.0104 N
9 O9     9.5965    -3.2446     0.0233 O
10 O10    11.3472     2.3982    -0.0330 O
11 C11    12.4000    -3.4265     0.0214 C
12 H12    13.0237    -3.5178     0.9167 H
13 H13    11.6503    -4.2215     0.0299 H
14 H14    13.0215    -3.5349    -0.8735 H
15 C15     8.5438     2.5880    -0.0310 C
16 H16     7.9220     2.6974     0.8633 H
17 H17     9.2964     3.3805    -0.0397 H
18 H18     7.9195     2.6802    -0.9256 H
19 C19    13.5460    -0.5131    -0.0080 C
20 C20    14.0013     0.7988    -0.0208 C
21 S21    14.8984    -1.6189     0.0007 S
22 C22    15.4088     0.8963    -0.0235 C
23 H23    13.3168     1.6437    -0.0278 H
24 C24    16.0260    -0.3293    -0.0128 C
25 C25     7.3925    -0.3258    -0.0013 C
26 C26     6.9404    -1.6426     0.0120 C
27 S27     6.0515     0.7853    -0.0098 S
28 C28     5.5480    -1.7433     0.0153 C
29 H29     7.6203    -2.4907     0.0189 H
30 C30     4.8889    -0.5133     0.0046 C
31 H31     5.0308    -2.6919     0.0252 H
32 C32     3.4644    -0.2692     0.0050 C
33 C33     2.8859     1.0554    -0.0076 C
34 C34     2.5138    -1.2730     0.0176 C
35 C35     1.4365     1.2864    -0.0068 C
36 C36     1.1192    -1.0539     0.0184 C
37 C37     0.4988     0.1812     0.0069 C
38 N38     3.6360     2.1408    -0.0206 N
39 N39     1.0705     2.5557    -0.0193 N
40 Se40     2.5476     3.5512    -0.0329 Se
41 C41    -0.9355     0.3566     0.0084 C
42 C42    -1.6489     1.5528    -0.0034 C
43 S43    -2.0420    -0.9938     0.0263 S
44 C44    -3.0360     1.3865     0.0018 C
45 H45    -1.1573     2.5151    -0.0154 H
46 C46    -3.4320     0.0514     0.0179 C
47 H47    -3.7550     2.2016    -0.0056 H
48 C48    -4.7936    -0.3847     0.0264 C
49 C49    -5.9329     0.4216     0.0205 C
50 C50    -6.3624     1.7994     0.0074 C
51 C51    -7.0812    -0.4015     0.0337 C
52 C52    -6.6549    -1.7785     0.0488 C
53 C53    -8.2221     0.4035     0.0296 C
54 N54    -7.7837     1.7181     0.0135 N
55 N55    -5.2350    -1.6994     0.0429 N
56 C56    -4.4510    -2.9116     0.0543 C
57 H57    -3.8271    -2.9951    -0.8414 H
58 H58    -3.8221    -2.9751     0.9481 H
59 H59    -5.1670    -3.7371     0.0656 H
60 C60    -8.5701     2.9278     0.0037 C
61 H61    -9.1943     3.0086     0.8997 H
62 H62    -7.8562     3.7553    -0.0056 H
63 H63    -9.1980     2.9922    -0.8910 H
64 O64    -5.7612     2.8682    -0.0060 O
65 O65    -7.2615    -2.8456     0.0640 O
66 C66    -9.5816    -0.0342     0.0375 C
67 C67    -9.9783    -1.3678     0.0539 C
68 S68   -10.9841     1.0088     0.0170 S
69 C69   -11.3698    -1.5321     0.0586 C
70 H70    -9.2554    -2.1803     0.0671 H
71 C71   -12.0749    -0.3395     0.0444 C
72 H72   -11.8558    -2.5023     0.0877 H
73 C73   -13.4995    -0.1354     0.0592 C
74 C74   -14.1949     1.0352     0.2693 C
75 C75   -15.6094     0.9206     0.2369 C
76 H76   -13.6913     1.9786     0.4616 H
77 C77   -16.0786    -0.3418     0.0051 C
78 H78   -16.2683     1.7693     0.3923 H
79 Se79   -14.6937    -1.5549    -0.2152 Se
80 H80    15.9492     1.8364    -0.0330 H
81 F81     2.8703    -2.5617     0.0303 F
82 F82     0.3800    -2.1713     0.0318 F
83 H83    17.0871    -0.5454    -0.0122 H
84 H84   -17.1111    -0.6599    -0.0573 H
@<TRIPOS>BOND
1 1 4 Ar
2 1 7 1
3 1 10 2
4 2 3 Ar
5 2 7 1
6 2 25 Ar
7 3 4 Ar
8 3 5 Ar
9 4 6 Ar
10 5 8 1
11 5 9 2
12 6 8 1
13 6 19 Ar
14 7 15 1
15 8 11 1
16 11 12 1
17 11 13 1
18 11 14 1
19 15 16 1
20 15 17 1
21 15 18 1
22 19 20 Ar
23 19 21 1
24 20 22 Ar
25 20 23 1
26 21 24 1
27 22 24 2
28 22 80 1
29 24 83 1
30 25 26 Ar
31 25 27 1
32 26 28 Ar
33 26 29 1
34 27 30 1
35 28 30 Ar
36 28 31 1
37 30 32 Ar
38 32 33 Ar
39 32 34 2
40 33 35 1
41 33 38 2
42 34 36 Ar
43 34 81 1
44 35 37 1
45 35 39 2
46 36 37 2
47 36 82 1
48 37 41 Ar
49 38 40 1
50 39 40 1
51 41 42 Ar
52 41 43 1
53 42 44 Ar
54 42 45 1
55 43 46 1
56 44 46 Ar
57 44 47 1
58 46 48 Ar
59 48 49 Ar
60 48 55 1
61 49 50 Ar
62 49 51 Ar
63 50 54 1
64 50 64 2
65 51 52 Ar
66 51 53 Ar
67 52 55 1
68 52 65 2
69 53 54 1
70 53 66 Ar
71 54 60 1
72 55 56 1
73 56 57 1
74 56 58 1
75 56 59 1
76 60 61 1
77 60 62 1
78 60 63 1
79 66 67 Ar
80 66 68 1
81 67 69 Ar
82 67 70 1
83 68 71 1
84 69 71 2
85 69 72 1
86 71 73 Ar
87 73 74 2
88 73 79 1
89 74 75 Ar
90 74 76 1
91 75 77 2
92 75 78 1
93 77 79 1
94 77 84 1
