# PDPF
# Created by GaussView 6.1.1
#

#
#

@<TRIPOS>MOLECULE
Molecule Name
56 61
SMALL
NO_CHARGES


@<TRIPOS>ATOM
1 C1    10.7137    -1.2635     0.1432 C
2 C2    10.3545     0.0768     0.2863 C
3 C3     8.1162    -0.3965     0.1213 C
4 C4     8.3748    -1.7699    -0.0306 C
5 C5     9.6957    -2.1991    -0.0182 C
6 H6     7.5559    -2.4750    -0.1545 H
7 H7     9.9232    -3.2554    -0.1337 H
8 C8     6.7355     0.0831     0.1123 C
9 C9     5.5702    -0.6626    -0.0317 C
10 C10     5.0709    -2.0107    -0.2154 C
11 C11     4.4550     0.2097     0.0187 C
12 C12     4.9534     1.5574     0.2022 C
13 C13     3.2889    -0.5349    -0.1247 C
14 C14     1.9154    -0.0541    -0.1310 C
15 C15     1.6489     1.3200     0.0093 C
16 C16     0.3361     1.7552     0.0071 C
17 H17     2.4651     2.0300     0.1250 H
18 C18    -0.3252    -0.5234    -0.2773 C
19 C19    -0.7088     0.8252    -0.1372 C
20 H20     0.1236     2.8118     0.1240 H
21 H21    -1.0839    -1.2952    -0.4094 H
22 C22    -2.1070     1.2078    -0.1410 C
23 C23    -2.6734     2.4580    -0.2404 C
24 S24    -3.3842     0.0222    -0.0086 S
25 C25    -4.0816     2.4596    -0.2197 C
26 C26    -4.6498     1.2128    -0.1005 C
27 C27    -6.0524     0.9191    -0.0496 C
28 C28    -6.5984    -0.3153     0.0544 C
29 C29    -8.0019    -0.6139     0.1093 C
30 C30    -8.5612    -1.8667     0.2106 C
31 S31    -9.2744     0.5741     0.0570 S
32 C32    -9.9764    -1.8685     0.2448 C
33 C33   -10.5128    -0.6195     0.1701 C
34 C34     7.1948     2.5845     0.4302 C
35 H35     7.7890     2.5115     1.3425 H
36 H36     7.8732     2.7183    -0.4141 H
37 H37     6.5040     3.4279     0.4963 H
38 C38     2.8287    -3.0352    -0.4457 C
39 H39     2.1532    -3.1737     0.4003 H
40 H40     2.2319    -2.9578    -1.3563 H
41 H41     3.5181    -3.8793    -0.5185 H
42 H42    -6.6962     1.7961    -0.1019 H
43 H43    -5.9524    -1.1913     0.1034 H
44 N44     9.0979     0.5081     0.2772 N
45 N45     6.3659     1.4075     0.2518 N
46 N46     3.6593    -1.8605    -0.2643 N
47 N47     0.9233    -0.9527    -0.2727 N
48 O48     4.3967     2.6451     0.3041 O
49 O49     5.6265    -3.0989    -0.3188 O
50 H50    11.1184     0.8422     0.4150 H
51 F51    -1.9882     3.5972    -0.3655 F
52 F52    -4.7861     3.5890    -0.3138 F
53 F53    -7.8486    -2.9937     0.2724 F
54 F54   -10.6791    -2.9979     0.3408 F
55 H55    11.7592    -1.5570     0.1586 H
56 H56   -11.5583    -0.3449     0.1759 H
@<TRIPOS>BOND
1 1 2 Ar
2 1 5 Ar
3 1 55 1
4 2 44 Ar
5 2 50 1
6 3 4 Ar
7 3 8 1
8 3 44 Ar
9 4 5 Ar
10 4 6 1
11 5 7 1
12 8 9 Ar
13 8 45 1
14 9 10 1
15 9 11 Ar
16 10 46 1
17 10 49 2
18 11 12 1
19 11 13 Ar
20 12 45 1
21 12 48 2
22 13 14 1
23 13 46 1
24 14 15 Ar
25 14 47 Ar
26 15 16 2
27 15 17 1
28 16 19 Ar
29 16 20 1
30 18 19 Ar
31 18 21 1
32 18 47 2
33 19 22 1
34 22 23 2
35 22 24 1
36 23 25 Ar
37 23 51 1
38 24 26 1
39 25 26 2
40 25 52 1
41 26 27 Ar
42 27 28 2
43 27 42 1
44 28 29 Ar
45 28 43 1
46 29 30 2
47 29 31 1
48 30 32 Ar
49 30 53 1
50 31 33 1
51 32 33 2
52 32 54 1
53 33 56 1
54 34 35 1
55 34 36 1
56 34 37 1
57 34 45 1
58 38 39 1
59 38 40 1
60 38 41 1
61 38 46 1
