# PDPH
# Created by GaussView 6.1.1
#

#
#

@<TRIPOS>MOLECULE
Molecule Name
56 61
SMALL
NO_CHARGES


@<TRIPOS>ATOM
1 C1     9.9847     0.9160     0.1808 C
2 C2     9.5774    -0.4151     0.2679 C
3 C3     7.3572     0.1439     0.1224 C
4 C4     7.6655     1.5125     0.0277 C
5 C5     9.0006     1.8931     0.0584 C
6 H6     6.8724     2.2508    -0.0669 H
7 H7     9.2659     2.9446    -0.0129 H
8 C8     5.9602    -0.2848     0.0932 C
9 C9     4.8227     0.5067    -0.0205 C
10 C10     4.3720     1.8781    -0.1495 C
11 C11     3.6766    -0.3267    -0.0062 C
12 C12     4.1254    -1.6970     0.1220 C
13 C13     2.5375     0.4650    -0.1199 C
14 C14     1.1479     0.0363    -0.1469 C
15 C15     0.8323    -1.3329    -0.0571 C
16 C16    -0.4957    -1.7145    -0.0755 C
17 H17     1.6225    -2.0747     0.0372 H
18 C18    -1.0752     0.5905    -0.2811 C
19 C19    -1.5082    -0.7474    -0.1941 C
20 H20    -0.7490    -2.7666     0.0185 H
21 H21    -1.8067     1.3915    -0.3879 H
22 C22    -2.9136    -1.1054    -0.2294 C
23 C23    -3.4734    -2.3496    -0.4457 C
24 S24    -4.1664     0.0817     0.0132 S
25 C25    -4.8820    -2.3452    -0.4209 C
26 H26    -2.8829    -3.2387    -0.6391 H
27 C27    -5.4296    -1.0964    -0.1843 C
28 H28    -5.4945    -3.2273    -0.5781 H
29 C29    -6.8291    -0.7811    -0.1011 C
30 C30    -7.3666     0.4425     0.1171 C
31 C31    -8.7664     0.7633     0.2051 C
32 C32    -9.3067     2.0163     0.4247 C
33 S33   -10.0375    -0.4157     0.0433 S
34 C34   -10.7238     2.0233     0.4612 C
35 H35    -8.6897     2.8998     0.5547 H
36 C36   -11.2577     0.7770     0.2696 C
37 H37   -11.3247     2.9116     0.6224 H
38 C38     6.3280    -2.8118     0.3094 C
39 H39     7.0030    -2.9361    -0.5391 H
40 H40     6.9229    -2.7971     1.2242 H
41 H41     5.6071    -3.6318     0.3413 H
42 C42     2.1684     2.9908    -0.3385 C
43 H43     1.5713     2.9721    -1.2520 H
44 H44     1.4955     3.1171     0.5115 H
45 H45     2.8873     3.8122    -0.3752 H
46 H46    -7.4890    -1.6392    -0.2308 H
47 H47    -6.7040     1.2993     0.2439 H
48 N48     8.3061    -0.8007     0.2405 N
49 N49     5.5422    -1.6000     0.1782 N
50 N50     2.9563     1.7808    -0.2053 N
51 N51     0.1892     0.9741    -0.2559 N
52 O52     3.5304    -2.7686     0.1791 O
53 O53     4.9666     2.9491    -0.2082 O
54 H54    10.3132    -1.2121     0.3647 H
55 H55    11.0400     1.1711     0.2087 H
56 H56   -12.3016     0.4913     0.2487 H
@<TRIPOS>BOND
1 1 2 Ar
2 1 5 Ar
3 1 55 1
4 2 48 Ar
5 2 54 1
6 3 4 Ar
7 3 8 1
8 3 48 Ar
9 4 5 Ar
10 4 6 1
11 5 7 1
12 8 9 Ar
13 8 49 1
14 9 10 1
15 9 11 Ar
16 10 50 1
17 10 53 2
18 11 12 1
19 11 13 Ar
20 12 49 1
21 12 52 2
22 13 14 1
23 13 50 1
24 14 15 Ar
25 14 51 Ar
26 15 16 2
27 15 17 1
28 16 19 Ar
29 16 20 1
30 18 19 Ar
31 18 21 1
32 18 51 2
33 19 22 1
34 22 23 2
35 22 24 1
36 23 25 Ar
37 23 26 1
38 24 27 1
39 25 27 2
40 25 28 1
41 27 29 Ar
42 29 30 2
43 29 46 1
44 30 31 Ar
45 30 47 1
46 31 32 2
47 31 33 1
48 32 34 Ar
49 32 35 1
50 33 36 1
51 34 36 2
52 34 37 1
53 36 56 1
54 38 39 1
55 38 40 1
56 38 41 1
57 38 49 1
58 42 43 1
59 42 44 1
60 42 45 1
61 42 50 1
