# PDPIN
# Created by GaussView 6.1.1
#

#
#

@<TRIPOS>MOLECULE
Molecule Name
78 85
SMALL
NO_CHARGES


@<TRIPOS>ATOM
1 C1     1.0908    -0.6649     0.1825 C
2 C2     0.1336     0.3004    -0.1214 C
3 C3    -1.1512    -0.2574     0.0220 C
4 C4    -2.1085     0.7076    -0.2821 C
5 C5    -0.0131     1.6836    -0.5207 C
6 O6     0.7951     2.5674    -0.7581 O
7 C7    -1.0045    -1.6407     0.4212 C
8 O8    -1.8129    -2.5244     0.6587 O
9 C9    -1.9483     3.1870    -0.8787 C
10 H10    -2.6959     3.4741    -0.1338 H
11 H11    -1.1007     3.8744    -0.8266 H
12 H12    -2.3773     3.2509    -1.8848 H
13 C13     0.9307    -3.1442     0.7789 C
14 H14     0.0833    -3.8318     0.7259 H
15 H15     1.6789    -3.4306     0.0343 H
16 H16     1.3592    -3.2085     1.7852 H
17 N17    -1.4232     1.8706    -0.6015 N
18 N18     0.4055    -1.8278     0.5021 N
19 C19    -3.5348     0.5708    -0.2958 C
20 C20    -4.5010     1.4245    -0.8373 C
21 S21    -4.2858    -0.8196     0.4198 S
22 C22    -5.8058     0.9762    -0.6446 C
23 H23    -4.2674     2.3331    -1.3739 H
24 C24    -5.8747    -0.2336     0.0430 C
25 H25    -6.6786     1.4918    -1.0284 H
26 C26     2.5171    -0.5288     0.1954 C
27 C27     3.4831    -1.3817     0.7382 C
28 S28     3.2686     0.8603    -0.5226 S
29 C29     4.7881    -0.9338     0.5447 C
30 H30     3.2494    -2.2893     1.2765 H
31 C31     4.8571     0.2746    -0.1451 C
32 H32     5.6610    -1.4487     0.9293 H
33 C33     5.9757     1.1034    -0.4527 C
34 H34     5.7455     2.1572    -0.6286 H
35 C35    -6.9923    -1.0635     0.3490 C
36 H36    -6.7601    -2.1166     0.5269 H
37 C37     7.3214     0.8613    -0.4609 C
38 C38     8.1680    -0.3199    -0.4001 C
39 C39     8.2256     2.0559    -0.3791 C
40 C40     9.5055     0.1287     0.0460 C
41 C41     7.8748    -1.5788    -0.8805 C
42 C42     9.5487     1.5325     0.0065 C
43 O43     7.9061     3.2175    -0.5473 O
44 C44    10.6406    -0.5844     0.4244 C
45 C45     8.7906    -2.6688    -0.8071 C
46 C46     6.6802    -1.8744    -1.5950 C
47 C47    10.7065     2.2336     0.3183 C
48 C48    11.8155     0.1077     0.7642 C
49 H49    10.6397    -1.6674     0.4760 H
50 N50     9.5084    -3.5819    -0.7417 N
51 N51     5.7279    -2.1442    -2.2061 N
52 C52    11.8335     1.5160     0.6943 C
53 H53    10.7158     3.3185     0.2640 H
54 H54    12.7462     2.0522     0.9363 H
55 C55    -8.3391    -0.8246     0.3540 C
56 C56    -9.1888     0.3540     0.2886 C
57 C57    -9.2389    -2.0210     0.2697 C
58 C58   -10.5239    -0.0968    -0.1613 C
59 C59    -8.8996     1.6142     0.7686 C
60 C60   -10.5660    -1.5022    -0.1218 C
61 O61    -8.9189    -3.1815     0.4400 O
62 C62   -11.6621     0.6140    -0.5468 C
63 C63    -7.7079     1.9123     1.4866 C
64 C64    -9.8177     2.7018     0.6921 C
65 C65   -11.7113    -2.2175    -0.4369 C
66 C66   -12.8109    -0.1053    -0.8799 C
67 H67   -11.6723     1.6960    -0.6020 H
68 N68    -6.7575     2.1834     2.1002 N
69 N69   -10.5374     3.6133     0.6251 N
70 C70   -12.8448    -1.5026    -0.8206 C
71 H71   -11.7069    -3.3025    -0.3834 H
72 H72   -13.7593    -2.0294    -1.0783 H
73 C73    12.9836    -0.6794     1.1740 C
74 C74    14.1596    -0.2093     1.6094 C
75 H75    12.8508    -1.7589     1.1109 H
76 H76    14.3744     0.8513     1.7112 H
77 H77   -13.6994     0.4377    -1.1900 H
78 H78    14.9583    -0.8904     1.8862 H
@<TRIPOS>BOND
1 1 2 Ar
2 1 18 1
3 1 26 Ar
4 2 3 Ar
5 2 5 Ar
6 3 4 Ar
7 3 7 Ar
8 4 17 1
9 4 19 Ar
10 5 6 2
11 5 17 1
12 7 8 2
13 7 18 1
14 9 10 1
15 9 11 1
16 9 12 1
17 9 17 1
18 13 14 1
19 13 15 1
20 13 16 1
21 13 18 1
22 19 20 Ar
23 19 21 1
24 20 22 Ar
25 20 23 1
26 21 24 1
27 22 24 Ar
28 22 25 1
29 24 35 Ar
30 26 27 Ar
31 26 28 1
32 27 29 Ar
33 27 30 1
34 28 31 1
35 29 31 Ar
36 29 32 1
37 31 33 Ar
38 33 34 1
39 33 37 2
40 35 36 1
41 35 55 2
42 37 38 1
43 37 39 1
44 38 40 1
45 38 41 2
46 39 42 1
47 39 43 2
48 40 42 Ar
49 40 44 Ar
50 41 45 Ar
51 41 46 Ar
52 42 47 Ar
53 44 48 Ar
54 44 49 1
55 45 50 3
56 46 51 3
57 47 52 Ar
58 47 53 1
59 48 52 Ar
60 48 73 1
61 52 54 1
62 55 56 1
63 55 57 1
64 56 58 1
65 56 59 2
66 57 60 1
67 57 61 2
68 58 60 Ar
69 58 62 Ar
70 59 63 Ar
71 59 64 Ar
72 60 65 Ar
73 62 66 Ar
74 62 67 1
75 63 68 3
76 64 69 3
77 65 70 Ar
78 65 71 1
79 66 70 Ar
80 66 77 1
81 70 72 1
82 73 74 2
83 73 75 1
84 74 76 1
85 74 78 1
