# pDSe
# Created by GaussView 6.1.1
#

#
#

@<TRIPOS>MOLECULE
Molecule Name
84 94
SMALL
NO_CHARGES


@<TRIPOS>ATOM
1 C1    10.7853     1.1667    -0.0128 C
2 C2     8.8037    -0.0522    -0.0042 C
3 C3     9.8647    -0.9593     0.0002 C
4 C4    11.0851    -0.2437    -0.0049 C
5 C5    10.1660    -2.3686     0.0082 C
6 C6    12.1453    -1.1479    -0.0004 C
7 N7     9.3638     1.2170    -0.0120 N
8 N8    11.5903    -2.4165     0.0074 N
9 O9     9.4711    -3.3802     0.0147 O
10 O10    11.4854     2.1746    -0.0191 O
11 C11    12.2630    -3.6929     0.0144 C
12 H12    12.8811    -3.8168     0.9098 H
13 H13    11.4766    -4.4517     0.0195 H
14 H14    12.8798    -3.8273    -0.8803 H
15 C15     8.6933     2.4952    -0.0187 C
16 H16     8.0760     2.6296     0.8754 H
17 H17     9.4814     3.2523    -0.0235 H
18 H18     8.0747     2.6196    -0.9134 H
19 C19    13.5460    -0.8367    -0.0032 C
20 C20    14.0631     0.4519    -0.0109 C
21 S21    14.8445    -2.0054     0.0026 S
22 C22    15.4739     0.4826    -0.0121 C
23 H23    13.4195     1.3284    -0.0155 H
24 C24    16.0326    -0.7706    -0.0053 C
25 C25     7.4082    -0.3596    -0.0012 C
26 C26     6.8954    -1.6559     0.0068 C
27 S27     6.1159     0.8107    -0.0075 S
28 C28     5.5007    -1.6874     0.0081 C
29 H29     7.5370    -2.5334     0.0115 H
30 C30     4.8997    -0.4306     0.0011 C
31 H31     4.9391    -2.6145     0.0139 H
32 C32     3.4800    -0.1543     0.0011 C
33 C33     2.9409     1.1817    -0.0092 C
34 C34     2.5357    -1.1715     0.0112 C
35 C35     1.4958     1.4255    -0.0090 C
36 C36     1.1495    -0.9423     0.0113 C
37 H37     2.8665    -2.2049     0.0195 H
38 C38     0.5667     0.3186     0.0017 C
39 H39     0.5073    -1.8195     0.0188 H
40 N40     3.7055     2.2607    -0.0192 N
41 N41     1.1375     2.7003    -0.0187 N
42 Se42     2.6266     3.6783    -0.0290 Se
43 C43    -0.8665     0.5034     0.0026 C
44 C44    -1.6112     1.6767    -0.0165 C
45 S45    -1.9301    -0.8768     0.0297 S
46 C46    -2.9957     1.4699    -0.0102 C
47 H47    -1.1447     2.6522    -0.0346 H
48 C48    -3.3572     0.1257     0.0144 C
49 H49    -3.7393     2.2628    -0.0228 H
50 C50    -4.7037    -0.3502     0.0263 C
51 C51    -5.8668     0.4218     0.0161 C
52 C52    -6.3358     1.7858    -0.0055 C
53 C53    -6.9904    -0.4348     0.0350 C
54 C54    -6.5238    -1.7982     0.0582 C
55 C55    -8.1544     0.3366     0.0262 C
56 N56    -7.7543     1.6631     0.0018 N
57 N57    -5.1068    -1.6774     0.0511 N
58 C58    -4.2880    -2.8655     0.0694 C
59 H59    -3.6625    -2.9361    -0.8264 H
60 H60    -3.6576    -2.9054     0.9637 H
61 H61    -4.9797    -3.7115     0.0859 H
62 C62    -8.5754     2.8495    -0.0151 C
63 H63    -9.2014     2.9177     0.8807 H
64 H64    -7.8857     3.6972    -0.0298 H
65 H65    -9.2052     2.8901    -0.9099 H
66 O66    -5.7655     2.8716    -0.0259 O
67 O67    -7.0980    -2.8832     0.0803 O
68 C68    -9.5006    -0.1406     0.0375 C
69 C69    -9.8585    -1.4849     0.0629 C
70 S70   -10.9328     0.8611     0.0106 S
71 C71   -11.2448    -1.6895     0.0693 C
72 H72    -9.1125    -2.2760     0.0812 H
73 C73   -11.9843    -0.5181     0.0475 C
74 H74   -11.7024    -2.6731     0.1051 H
75 C75   -13.4142    -0.3551     0.0615 C
76 C76   -14.1432     0.7962     0.2635 C
77 C77   -15.5539     0.6405     0.2324 C
78 H78   -13.6672     1.7552     0.4489 H
79 C79   -15.9864    -0.6365     0.0097 C
80 H80   -16.2370     1.4709     0.3820 H
81 Se81   -14.5668    -1.8105    -0.2025 Se
82 H82    16.0581     1.3962    -0.0177 H
83 H83    17.0821    -1.0369    -0.0045 H
84 H84   -17.0093    -0.9848    -0.0501 H
@<TRIPOS>BOND
1 1 4 Ar
2 1 7 1
3 1 10 2
4 2 3 Ar
5 2 7 1
6 2 25 Ar
7 3 4 Ar
8 3 5 Ar
9 4 6 Ar
10 5 8 1
11 5 9 2
12 6 8 1
13 6 19 Ar
14 7 15 1
15 8 11 1
16 11 12 1
17 11 13 1
18 11 14 1
19 15 16 1
20 15 17 1
21 15 18 1
22 19 20 Ar
23 19 21 1
24 20 22 Ar
25 20 23 1
26 21 24 1
27 22 24 2
28 22 82 1
29 24 83 1
30 25 26 Ar
31 25 27 1
32 26 28 Ar
33 26 29 1
34 27 30 1
35 28 30 Ar
36 28 31 1
37 30 32 Ar
38 32 33 Ar
39 32 34 Ar
40 33 35 1
41 33 40 2
42 34 36 Ar
43 34 37 1
44 35 38 Ar
45 35 41 Ar
46 36 38 Ar
47 36 39 1
48 38 43 Ar
49 40 42 1
50 41 42 1
51 43 44 Ar
52 43 45 1
53 44 46 Ar
54 44 47 1
55 45 48 1
56 46 48 Ar
57 46 49 1
58 48 50 Ar
59 50 51 Ar
60 50 57 1
61 51 52 Ar
62 51 53 Ar
63 52 56 1
64 52 66 2
65 53 54 Ar
66 53 55 Ar
67 54 57 1
68 54 67 2
69 55 56 1
70 55 68 Ar
71 56 62 1
72 57 58 1
73 58 59 1
74 58 60 1
75 58 61 1
76 62 63 1
77 62 64 1
78 62 65 1
79 68 69 Ar
80 68 70 1
81 69 71 Ar
82 69 72 1
83 70 73 1
84 71 73 2
85 71 74 1
86 73 75 Ar
87 75 76 2
88 75 81 1
89 76 77 Ar
90 76 78 1
91 77 79 2
92 77 80 1
93 79 81 1
94 79 84 1
