# PDTzTI-TEG-FT
# Created by GaussView 6.1.1
#

#
#

@<TRIPOS>MOLECULE
Molecule Name
83 89
SMALL
NO_CHARGES


@<TRIPOS>ATOM
1 C1    -2.1789     0.3248    -0.4492 C
2 C2    -3.3647     1.1109    -0.3581 C
3 C3    -4.6630     0.6548    -0.1897 C
4 C4    -2.0892    -1.0420    -0.6769 C
5 C5    -5.1819    -0.7257    -0.0539 C
6 C6    -3.1637    -2.0307    -0.9484 C
7 C7    -5.5927     1.7188    -0.0787 C
8 C8     0.0609    -0.5915    -0.5429 C
9 C9    -5.0245     2.9668    -0.1773 C
10 C10    -5.3045    -3.0823    -0.6486 C
11 H11    -6.3513    -2.7860    -0.5965 H
12 H12    -5.0860    -3.4960    -1.6353 H
13 S13    -0.5923     1.0045    -0.2955 S
14 S14    -3.3020     2.8411    -0.3922 S
15 N15    -4.4926    -1.8519    -0.5211 N
16 O16    -2.8571    -3.0788    -1.4868 O
17 O17    -6.3057    -0.8614     0.4092 O
18 H18    -6.6500     1.5366     0.0752 H
19 C19     4.9112    -2.5245    -0.7146 C
20 C20     3.7252    -1.7336    -0.6222 C
21 C21     3.6360    -0.3678    -0.3982 C
22 C22     6.2119    -2.0739    -0.8739 C
23 C23     4.7096     0.6270    -0.1379 C
24 C24     6.7400    -0.6965    -0.9863 C
25 C25     7.1413    -3.1507    -0.9861 C
26 C26     6.5513    -4.3757    -0.8987 C
27 C27     1.4857    -0.8183    -0.5302 C
28 C28     6.8505     1.6736    -0.4593 C
29 H29     7.6662     1.5701    -1.1718 H
30 H30     6.2015     2.4923    -0.7752 H
31 S31     4.8484    -4.2551    -0.6924 S
32 S32     2.1394    -2.4134    -0.7767 S
33 N33     6.0453     0.4347    -0.5306 N
34 O34     7.8779    -0.5644    -1.4154 O
35 O35     4.3933     1.6893     0.3662 O
36 N36     2.3656     0.1215    -0.3482 N
37 N37    -0.8196    -1.5312    -0.7260 N
38 C38     7.3860     1.9735     0.9451 C
39 H39     6.5554     1.9093     1.6587 H
40 C40    -4.9979    -4.1163     0.4418 C
41 H41    -3.9200    -4.1127     0.6486 H
42 C42     7.8906     3.4085     0.9988 C
43 H43     7.0558     4.1030     0.8010 H
44 H44     8.2828     3.6228     2.0044 H
45 C45     8.4618     0.9865     1.3773 C
46 H46     8.0926    -0.0492     1.2955 H
47 H47     9.3472     1.0772     0.7293 H
48 C48    -5.7233    -3.7996     1.7419 C
49 H49    -5.4160    -4.5133     2.5214 H
50 H50    -5.4621    -2.7835     2.0813 H
51 C51    -5.3451    -5.5084    -0.0700 C
52 H52    -4.7832    -5.7077    -0.9980 H
53 H53    -6.4218    -5.5746    -0.2962 H
54 C54     9.4474     4.8774     0.0501 C
55 H55     9.9029     5.1064     1.0266 H
56 H56    10.2191     4.9178    -0.7227 H
57 H57     8.6822     5.6401    -0.1666 H
58 C58    -7.8639    -3.4384     2.6156 C
59 H59    -7.6653    -2.3753     2.8216 H
60 H60    -8.9191    -3.5610     2.3582 H
61 H61    -7.6464    -4.0247     3.5229 H
62 C62    -5.3289    -7.7645     0.5425 C
63 H63    -5.0259    -8.4215     1.3616 H
64 H64    -6.4122    -7.8735     0.3755 H
65 H65    -4.7995    -8.0682    -0.3750 H
66 C66     9.8144     0.4130     3.1984 C
67 H67    10.0110     0.6954     4.2358 H
68 O68     8.8023     1.2586     2.7193 O
69 O69     8.9026     3.5845     0.0308 O
70 O70    -4.9983    -6.4527     0.9154 O
71 O71    -7.1116    -3.8898     1.5210 O
72 C72    -5.6882     4.2446    -0.1288 C
73 C73    -5.1453     5.5040    -0.1991 C
74 S74    -7.4153     4.3759     0.0426 S
75 C75    -6.0972     6.5490    -0.1146 C
76 C76    -7.3737     6.0973     0.0197 C
77 H77    10.7410     0.5221     2.6131 H
78 H78     9.5042    -0.6442     3.1677 H
79 H79     8.2016    -2.9850    -1.1292 H
80 F80    -3.8389     5.7433    -0.3338 F
81 F81    -5.7388     7.8313    -0.1654 F
82 H82     7.0215    -5.3497    -0.9403 H
83 H83    -8.2798     6.6805     0.1049 H
@<TRIPOS>BOND
1 1 2 Ar
2 1 4 Ar
3 1 13 1
4 2 3 Ar
5 2 14 1
6 3 5 1
7 3 7 Ar
8 4 6 1
9 4 37 Ar
10 5 15 1
11 5 17 2
12 6 15 1
13 6 16 2
14 7 9 2
15 7 18 1
16 8 13 1
17 8 27 Ar
18 8 37 2
19 9 14 1
20 9 72 Ar
21 10 11 1
22 10 12 1
23 10 15 1
24 10 40 1
25 19 20 Ar
26 19 22 2
27 19 31 1
28 20 21 Ar
29 20 32 1
30 21 23 1
31 21 36 Ar
32 22 24 1
33 22 25 Ar
34 23 33 1
35 23 35 2
36 24 33 1
37 24 34 2
38 25 26 2
39 25 79 1
40 26 31 1
41 26 82 1
42 27 32 1
43 27 36 2
44 28 29 1
45 28 30 1
46 28 33 1
47 28 38 1
48 38 39 1
49 38 42 1
50 38 45 1
51 40 41 1
52 40 48 1
53 40 51 1
54 42 43 1
55 42 44 1
56 42 69 1
57 45 46 1
58 45 47 1
59 45 68 1
60 48 49 1
61 48 50 1
62 48 71 1
63 51 52 1
64 51 53 1
65 51 70 1
66 54 55 1
67 54 56 1
68 54 57 1
69 54 69 1
70 58 59 1
71 58 60 1
72 58 61 1
73 58 71 1
74 62 63 1
75 62 64 1
76 62 65 1
77 62 70 1
78 66 67 1
79 66 68 1
80 66 77 1
81 66 78 1
82 72 73 2
83 72 74 1
84 73 75 Ar
85 73 80 1
86 74 76 1
87 75 76 2
88 75 81 1
89 76 83 1
