# PDTzSI-T
# Created by GaussView 6.1.1
#

#
#

@<TRIPOS>MOLECULE
Molecule Name
62 69
SMALL
NO_CHARGES


@<TRIPOS>ATOM
1 C1     6.8028    -0.1862    -0.0449 C
2 C2     8.2249    -0.0710    -0.0913 C
3 C3     9.1469    -1.0895    -0.2609 C
4 C4     6.0427    -1.3359     0.1147 C
5 C5     8.9257    -2.5394    -0.4686 C
6 C6     6.4851    -2.7418     0.2964 C
7 C7    10.5060    -0.6458    -0.2861 C
8 C8     4.3991     0.1241     0.0310 C
9 C9    10.6864     0.6929    -0.1344 C
10 S10     5.7596     1.1939    -0.1517 S
11 N11     7.7188    -3.1963    -0.2021 N
12 O12     5.7101    -3.5342     0.7967 O
13 O13     9.8753    -3.2172    -0.8395 O
14 C14    -0.7746     0.8091     0.1507 C
15 C15     0.6436     0.9295     0.1063 C
16 C16     1.3992     2.0836    -0.0548 C
17 C17    -1.7069     1.8213     0.3106 C
18 C18     0.9503     3.4872    -0.2349 C
19 C19    -1.4955     3.2759     0.5106 C
20 C20    -3.0556     1.3736     0.3426 C
21 C21    -3.2509     0.0233     0.2044 C
22 C22     3.0485     0.6293     0.0251 C
23 S23     1.6926    -0.4473     0.2105 S
24 N24    -0.2893     3.9354     0.2588 N
25 O25    -2.4554     3.9477     0.8649 O
26 O26     1.7221     4.2857    -0.7295 O
27 N27     2.7446     1.8882    -0.1029 N
28 N28     4.6970    -1.1357     0.1604 N
29 H29    -3.8629     2.0822     0.4955 H
30 C30     7.8265    -4.6561    -0.3239 C
31 H31     8.2975    -4.8941    -1.2774 H
32 H32     8.4492    -5.0602     0.4796 H
33 H33     6.8276    -5.0791    -0.2562 H
34 C34    -0.4026     5.3953     0.3813 C
35 H35    -1.0039     5.8006    -0.4377 H
36 H36    -0.8988     5.6293     1.3227 H
37 H37     0.5971     5.8201     0.3411 H
38 C38    -4.4928    -0.7029     0.2017 C
39 C39    -4.6958    -2.0557     0.3573 C
40 C40    -6.0645    -2.4173     0.3079 C
41 H41    -3.8993    -2.7733     0.5232 H
42 C42    -6.9240    -1.3337     0.1158 C
43 C43    -8.3523    -1.3964     0.0283 C
44 C44    -9.1825    -0.3400    -0.1549 C
45 H45    -8.7652    -2.4008     0.1218 H
46 H46    -8.7687     0.6644    -0.2476 H
47 C47   -10.6132    -0.4020    -0.2424 C
48 C48   -11.4720     0.6806    -0.4349 C
49 C49   -12.8478     0.3136    -0.4814 C
50 C50   -13.0230    -1.0308    -0.3254 C
51 H51   -13.6539     1.0234    -0.6240 H
52 C52    -6.5358    -3.7506     0.4498 C
53 N53    -6.9308    -4.8383     0.5644 N
54 C54   -11.0020     2.0145    -0.5712 C
55 N55   -10.6099     3.1038    -0.6825 N
56 H56    11.3172    -1.3506    -0.4247 H
57 S57    -6.0084     0.1295    -0.0161 S
58 S58   -11.5316    -1.8649    -0.1212 S
59 Se59     9.0737     1.5853     0.0618 Se
60 Se60    -1.6093    -0.8557    -0.0024 Se
61 H61    11.6250     1.2312    -0.1172 H
62 H62   -13.9533    -1.5839    -0.3184 H
@<TRIPOS>BOND
1 1 2 Ar
2 1 4 Ar
3 1 10 1
4 2 3 2
5 2 59 1
6 3 5 1
7 3 7 Ar
8 4 6 1
9 4 28 Ar
10 5 11 1
11 5 13 2
12 6 11 1
13 6 12 2
14 7 9 2
15 7 56 1
16 8 10 1
17 8 22 Ar
18 8 28 2
19 9 59 1
20 9 61 1
21 11 30 1
22 14 15 Ar
23 14 17 2
24 14 60 1
25 15 16 Ar
26 15 23 1
27 16 18 1
28 16 27 Ar
29 17 19 1
30 17 20 Ar
31 18 24 1
32 18 26 2
33 19 24 1
34 19 25 2
35 20 21 2
36 20 29 1
37 21 38 Ar
38 21 60 1
39 22 23 1
40 22 27 2
41 24 34 1
42 30 31 1
43 30 32 1
44 30 33 1
45 34 35 1
46 34 36 1
47 34 37 1
48 38 39 2
49 38 57 1
50 39 40 Ar
51 39 41 1
52 40 42 Ar
53 40 52 Ar
54 42 43 Ar
55 42 57 1
56 43 44 2
57 43 45 1
58 44 46 1
59 44 47 Ar
60 47 48 Ar
61 47 58 1
62 48 49 Ar
63 48 54 Ar
64 49 50 2
65 49 51 1
66 50 58 1
67 50 62 1
68 52 53 3
69 54 55 3
