# PDTzTIT-2F
# Created by GaussView 6.1.1
#

#
#

@<TRIPOS>MOLECULE
Molecule Name
49 55
SMALL
NO_CHARGES


@<TRIPOS>ATOM
1 C1     1.4483     0.8929     0.0105 C
2 C2     2.8598     0.6921     0.0190 C
3 C3     3.8574     1.6545     0.0864 C
4 C4     0.7596     2.0905    -0.1354 C
5 C5     3.7654     3.1256     0.2089 C
6 C6     1.2789     3.4682    -0.3250 C
7 C7     5.1537     1.0816     0.0806 C
8 C8    -0.9699     0.7362    -0.0005 C
9 C9     5.1566    -0.2908     0.0056 C
10 C10     2.7626     5.2994     0.1746 C
11 H11     1.7970     5.7589     0.3726 H
12 H12     3.4738     5.5034     0.9729 H
13 H13     3.1624     5.6981    -0.7629 H
14 S14     0.3240    -0.4200     0.1472 S
15 S15     3.5295    -0.9038    -0.0558 S
16 N16     2.5743     3.8457     0.0800 N
17 O17     0.5248     4.3205    -0.7538 O
18 O18     4.8019     3.7461     0.4103 O
19 H19     6.0447     1.6959     0.1382 H
20 C20    -6.1814     0.3574     0.0207 C
21 C21    -4.7664     0.1585     0.0320 C
22 C22    -4.0794    -1.0373     0.1819 C
23 C23    -7.1742    -0.6061    -0.0761 C
24 C24    -4.6036    -2.4132     0.3792 C
25 C25    -7.0728    -2.0727    -0.2282 C
26 C26    -8.4802    -0.0319    -0.0699 C
27 C27    -8.4657     1.3263     0.0342 C
28 C28    -2.3489     0.3147     0.0456 C
29 C29    -6.0719    -4.2475    -0.1575 C
30 H30    -6.7380    -4.4541    -0.9934 H
31 H31    -5.0979    -4.7101    -0.2991 H
32 H32    -6.5253    -4.6405     0.7577 H
33 S33    -6.8645     1.9462     0.1235 S
34 S34    -3.6426     1.4699    -0.1082 S
35 N35    -5.8856    -2.7940    -0.0589 N
36 O36    -8.0973    -2.6937    -0.4812 O
37 O37    -3.8595    -3.2578     0.8395 O
38 N38    -2.7224    -0.9226     0.1915 N
39 N39    -0.5965     1.9739    -0.1432 N
40 C40     6.2971    -1.1704    -0.0269 C
41 C41     6.3295    -2.5418    -0.0908 C
42 S42     7.9271    -0.5615     0.0154 S
43 C43     7.6356    -3.0886    -0.1042 C
44 C44     8.6104    -2.1407    -0.0514 C
45 H45    -9.3750    -0.6365    -0.1465 H
46 F46     5.2382    -3.3091    -0.1362 F
47 F47     7.8461    -4.4029    -0.1632 F
48 H48    -9.3087     2.0044     0.0672 H
49 H49     9.6813    -2.2880    -0.0486 H
@<TRIPOS>BOND
1 1 2 Ar
2 1 4 Ar
3 1 14 1
4 2 3 Ar
5 2 15 1
6 3 5 1
7 3 7 Ar
8 4 6 1
9 4 39 Ar
10 5 16 1
11 5 18 2
12 6 16 1
13 6 17 2
14 7 9 2
15 7 19 1
16 8 14 1
17 8 28 Ar
18 8 39 2
19 9 15 1
20 9 40 Ar
21 10 11 1
22 10 12 1
23 10 13 1
24 10 16 1
25 20 21 Ar
26 20 23 Ar
27 20 33 1
28 21 22 Ar
29 21 34 1
30 22 24 1
31 22 38 Ar
32 23 25 1
33 23 26 Ar
34 24 35 1
35 24 37 2
36 25 35 1
37 25 36 2
38 26 27 2
39 26 45 1
40 27 33 1
41 27 48 1
42 28 34 1
43 28 38 2
44 29 30 1
45 29 31 1
46 29 32 1
47 29 35 1
48 40 41 2
49 40 42 1
50 41 43 Ar
51 41 46 1
52 42 44 1
53 43 44 2
54 43 47 1
55 44 49 1
