# PDTzSI-Se
# Created by GaussView 6.1.1
#

#
#

@<TRIPOS>MOLECULE
Molecule Name
62 69
SMALL
NO_CHARGES


@<TRIPOS>ATOM
1 C1     7.5386    -0.3088    -0.0225 C
2 C2     8.9645    -0.2495    -0.0579 C
3 C3     9.8474    -1.3045    -0.2114 C
4 C4     6.7328    -1.4267     0.1392 C
5 C5     9.5718    -2.7465    -0.4092 C
6 C6     7.1187    -2.8473     0.3354 C
7 C7    11.2229    -0.9141    -0.2286 C
8 C8     5.1484     0.0956     0.0310 C
9 C9    11.4541     0.4178    -0.0864 C
10 S10     6.5511     1.1101    -0.1481 S
11 N11     8.3377    -3.3534    -0.1492 N
12 O12     6.3092    -3.6050     0.8349 O
13 O13    10.4976    -3.4639    -0.7653 O
14 C14     0.0053     0.9845     0.1013 C
15 C15     1.4270     1.0492     0.0676 C
16 C16     2.2294     2.1714    -0.0941 C
17 C17    -0.8892     2.0342     0.2359 C
18 C18     1.8393     3.5907    -0.2867 C
19 C19    -0.6264     3.4830     0.4145 C
20 C20    -2.2534     1.6383     0.2590 C
21 C21    -2.5025     0.2947     0.1379 C
22 C22     3.8188     0.6533     0.0098 C
23 S23     2.4198    -0.3674     0.1900 S
24 N24     0.6107     4.0911     0.1842 N
25 O25    -1.5678     4.1971     0.7346 O
26 O26     2.6495     4.3560    -0.7725 O
27 N27     3.5662     1.9224    -0.1291 N
28 N28     5.3957    -1.1739     0.1720 N
29 H29    -3.0331     2.3814     0.3908 H
30 C30     8.3888    -4.8174    -0.2589 C
31 H31     8.8625    -5.0811    -1.2041 H
32 H32     8.9840    -5.2396     0.5561 H
33 H33     7.3730    -5.1999    -0.2016 H
34 C34     0.5551     5.5554     0.2923 C
35 H35     0.0050     5.9797    -0.5528 H
36 H36     0.0326     5.8174     1.2116 H
37 H37     1.5728     5.9373     0.2890 H
38 C38    -3.7702    -0.3784     0.1339 C
39 C39    -4.0167    -1.7257     0.2457 C
40 C40    -5.3859    -2.0948     0.2154 C
41 H41    -3.2287    -2.4635     0.3656 H
42 C42    -6.2953    -1.0461     0.0799 C
43 C43    -7.7169    -1.1802     0.0303 C
44 C44    -8.6071    -0.1644    -0.0965 C
45 H45    -8.0777    -2.2071     0.1041 H
46 H46    -8.2439     0.8620    -0.1689 H
47 C47   -10.0317    -0.2919    -0.1464 C
48 C48   -10.9326     0.7627    -0.2780 C
49 C49   -12.3116     0.3955    -0.3054 C
50 C50   -12.5370    -0.9432    -0.1975 C
51 H51   -13.1049     1.1286    -0.4041 H
52 C52    -5.8121    -3.4483     0.3199 C
53 N53    -6.1727    -4.5508     0.4036 N
54 C54   -10.4986     2.1132    -0.3790 C
55 N55   -10.1323     3.2143    -0.4614 N
56 H56    12.0072    -1.6510    -0.3547 H
57 Se57     9.8758     1.3737     0.0890 Se
58 Se58    -0.8911    -0.6496    -0.0334 Se
59 Se59    -5.3796     0.5763    -0.0339 Se
60 Se60   -10.9581    -1.9079    -0.0445 Se
61 H61    12.4128     0.9192    -0.0656 H
62 H62   -13.4952    -1.4457    -0.1946 H
@<TRIPOS>BOND
1 1 2 Ar
2 1 4 Ar
3 1 10 1
4 2 3 2
5 2 57 1
6 3 5 1
7 3 7 Ar
8 4 6 1
9 4 28 Ar
10 5 11 1
11 5 13 2
12 6 11 1
13 6 12 2
14 7 9 2
15 7 56 1
16 8 10 1
17 8 22 Ar
18 8 28 2
19 9 57 1
20 9 61 1
21 11 30 1
22 14 15 Ar
23 14 17 2
24 14 58 1
25 15 16 Ar
26 15 23 1
27 16 18 1
28 16 27 Ar
29 17 19 1
30 17 20 Ar
31 18 24 1
32 18 26 2
33 19 24 1
34 19 25 2
35 20 21 2
36 20 29 1
37 21 38 Ar
38 21 58 1
39 22 23 1
40 22 27 2
41 24 34 1
42 30 31 1
43 30 32 1
44 30 33 1
45 34 35 1
46 34 36 1
47 34 37 1
48 38 39 2
49 38 59 1
50 39 40 Ar
51 39 41 1
52 40 42 Ar
53 40 52 Ar
54 42 43 Ar
55 42 59 1
56 43 44 2
57 43 45 1
58 44 46 1
59 44 47 Ar
60 47 48 Ar
61 47 60 1
62 48 49 Ar
63 48 54 Ar
64 49 50 2
65 49 51 1
66 50 60 1
67 50 62 1
68 52 53 3
69 54 55 3
