# PDTzTI-T
# Created by GaussView 6.1.1
#

#
#

@<TRIPOS>MOLECULE
Molecule Name
62 69
SMALL
NO_CHARGES


@<TRIPOS>ATOM
1 C1     7.0876    -0.0866    -0.0451 C
2 C2     8.5129     0.0024    -0.0917 C
3 C3     9.4248    -1.0343    -0.2232 C
4 C4     6.3139    -1.2276     0.1116 C
5 C5     9.2058    -2.4870    -0.3859 C
6 C6     6.7337    -2.6426     0.2821 C
7 C7    10.7711    -0.5634    -0.2462 C
8 C8     4.6910     0.2560     0.0336 C
9 C9    10.8650     0.7907    -0.1292 C
10 S10     6.0658     1.3092    -0.1435 S
11 S11     9.3200     1.5321     0.0076 S
12 N12     7.9711    -3.1167    -0.1907 N
13 O13     5.9366    -3.4314     0.7523 O
14 O14    10.1719    -3.1823    -0.6718 O
15 C15    -0.4725     1.0195     0.1528 C
16 C16     0.9491     1.1139     0.1082 C
17 C17     1.7193     2.2592    -0.0470 C
18 C18    -1.3929     2.0515     0.2691 C
19 C19     1.2957     3.6731    -0.2142 C
20 C20    -1.1836     3.5085     0.4230 C
21 C21    -2.7296     1.5780     0.2974 C
22 C22    -2.8387     0.2116     0.1982 C
23 C23     3.3473     0.7804     0.0289 C
24 S24    -1.2664    -0.5183     0.0591 S
25 S25     1.9763    -0.2794     0.2032 S
26 N26     0.0499     4.1413     0.2461 N
27 O27    -2.1597     4.1973     0.6890 O
28 O28     2.0935     4.4682    -0.6716 O
29 N29     3.0620     2.0439    -0.0931 N
30 N30     4.9709    -1.0082     0.1578 N
31 H31    -3.5686     2.2548     0.4107 H
32 C32     8.0428    -4.5792    -0.3062 C
33 H33     8.6657    -4.8276    -1.1638 H
34 H34     8.4923    -5.0144     0.5916 H
35 H35     7.0325    -4.9648    -0.4214 H
36 C36    -0.0283     5.6038     0.3622 C
37 H37    -0.4568     6.0392    -0.5457 H
38 H38    -0.6723     5.8490     1.2049 H
39 H39     0.9780     5.9916     0.5023 H
40 C40    -4.0290    -0.5999     0.1936 C
41 C41    -4.1371    -1.9647     0.3371 C
42 S42    -5.5966     0.1301    -0.0124 S
43 C43    -5.4787    -2.4175     0.2877 C
44 H44    -3.2925    -2.6280     0.4892 H
45 C45    -6.4104    -1.3932     0.1078 C
46 C46    -7.8316    -1.5513     0.0255 C
47 C47    -8.7327    -0.5516    -0.1399 C
48 H48    -8.1748    -2.5826     0.1073 H
49 H49    -8.3888     0.4799    -0.2200 H
50 C50   -10.1562    -0.7098    -0.2243 C
51 C51   -11.0876     0.3148    -0.3964 C
52 S52   -10.9723    -2.2336    -0.1242 S
53 C53   -12.4354    -0.1444    -0.4443 C
54 C54   -12.5179    -1.4999    -0.3096 C
55 H55   -13.2886     0.5110    -0.5725 H
56 C56    -5.8587    -3.7810     0.4171 C
57 N57    -6.1803    -4.8936     0.5214 N
58 C58   -10.7100     1.6796    -0.5119 C
59 N59   -10.3929     2.7947    -0.6061 N
60 H60    11.6140    -1.2345    -0.3517 H
61 H61    11.7589     1.4009    -0.1122 H
62 H62   -13.4084    -2.1152    -0.3087 H
@<TRIPOS>BOND
1 1 2 Ar
2 1 4 Ar
3 1 10 1
4 2 3 Ar
5 2 11 1
6 3 5 1
7 3 7 Ar
8 4 6 1
9 4 30 Ar
10 5 12 1
11 5 14 2
12 6 12 1
13 6 13 2
14 7 9 2
15 7 60 1
16 8 10 1
17 8 23 Ar
18 8 30 2
19 9 11 1
20 9 61 1
21 12 32 1
22 15 16 Ar
23 15 18 Ar
24 15 24 1
25 16 17 Ar
26 16 25 1
27 17 19 1
28 17 29 Ar
29 18 20 1
30 18 21 Ar
31 19 26 1
32 19 28 2
33 20 26 1
34 20 27 2
35 21 22 2
36 21 31 1
37 22 24 1
38 22 40 Ar
39 23 25 1
40 23 29 2
41 26 36 1
42 32 33 1
43 32 34 1
44 32 35 1
45 36 37 1
46 36 38 1
47 36 39 1
48 40 41 2
49 40 42 1
50 41 43 Ar
51 41 44 1
52 42 45 1
53 43 45 Ar
54 43 56 Ar
55 45 46 Ar
56 46 47 2
57 46 48 1
58 47 49 1
59 47 50 Ar
60 50 51 Ar
61 50 52 1
62 51 53 Ar
63 51 58 Ar
64 52 54 1
65 53 54 2
66 53 55 1
67 54 62 1
68 56 57 3
69 58 59 3
