# PDTzTI-TEG
# Created by GaussView 6.1.1
#

#
#

@<TRIPOS>MOLECULE
Molecule Name
76 81
SMALL
NO_CHARGES


@<TRIPOS>ATOM
1 C1    -2.7451     1.9581    -0.5345 C
2 C2    -3.7018     3.0176    -0.4715 C
3 C3    -5.0694     2.8991    -0.2851 C
4 C4    -2.9974     0.6090    -0.7312 C
5 C5    -5.9037     1.6914    -0.0966 C
6 C6    -4.2859    -0.0847    -0.9897 C
7 C7    -5.7126     4.1704    -0.2137 C
8 C8    -0.8039     0.5121    -0.5881 C
9 C9    -4.8481     5.2134    -0.3606 C
10 C10    -6.6145    -0.5722    -0.6473 C
11 H11    -7.5546    -0.0256    -0.5840 H
12 H12    -6.5231    -1.0386    -1.6305 H
13 S13    -1.0410     2.2250    -0.3796 S
14 S14    -3.2266     4.6800    -0.5705 S
15 N15    -5.5222     0.4206    -0.5507 N
16 O16    -4.2520    -1.1796    -1.5212 O
17 O17    -7.0134     1.8412     0.3944 O
18 H18    -6.7793     4.2703    -0.0566 H
19 C19     3.4146    -2.5690    -0.6718 C
20 C20     2.4625    -1.5058    -0.6086 C
21 C21     2.7149    -0.1557    -0.4165 C
22 C22     4.7875    -2.4606    -0.8256 C
23 C23     4.0008     0.5481    -0.1704 C
24 C24     5.6435    -1.2616    -0.9595 C
25 C25     5.4195    -3.7375    -0.9051 C
26 C26     4.5420    -4.7744    -0.7994 C
27 C27     0.5204    -0.0610    -0.5584 C
28 C28     6.3374     1.0191    -0.4864 C
29 H29     7.1078     0.6959    -1.1832 H
30 H30     5.9160     1.9646    -0.8325 H
31 S31     2.9219    -4.2283    -0.6149 S
32 S32     0.7580    -1.7739    -0.7624 S
33 N33     5.2492     0.0184    -0.5395 N
34 O34     6.7823    -1.4279    -1.3744 O
35 O35     3.9560     1.6702     0.3008 O
36 N36     1.6055     0.6349    -0.3897 N
37 N37    -1.8895    -0.1832    -0.7591 N
38 C38     6.9180     1.2148     0.9184 C
39 H39     6.0911     1.3778     1.6205 H
40 C40    -6.5537    -1.6371     0.4547 C
41 H41    -5.5053    -1.9034     0.6406 H
42 C42     7.7623     2.4809     0.9459 C
43 H43     7.1276     3.3549     0.7187 H
44 H44     8.1860     2.6183     1.9521 H
45 C45     7.7110     0.0039     1.3907 C
46 H46     7.0971    -0.9098     1.3273 H
47 H47     8.5974    -0.1450     0.7549 H
48 C48    -7.1461    -1.1310     1.7622 C
49 H49    -7.0085    -1.8874     2.5499 H
50 H50    -6.6315    -0.2077     2.0759 H
51 C51    -7.2527    -2.9024    -0.0257 C
52 H52    -6.7832    -3.2472    -0.9624 H
53 H53    -8.3168    -2.6978    -0.2267 H
54 C54     9.6438     3.4923    -0.0122 C
55 H55    10.1330     3.6265     0.9657 H
56 H56    10.4084     3.3199    -0.7738 H
57 H57     9.0940     4.4151    -0.2578 H
58 C58    -9.1046    -0.2207     2.6637 C
59 H59    -8.6409     0.7633     2.8323 H
60 H60   -10.1632    -0.0813     2.4298 H
61 H61    -9.0175    -0.8196     3.5846 H
62 C62    -7.7907    -5.0823     0.6255 C
63 H63    -7.6410    -5.7860     1.4482 H
64 H64    -8.8706    -4.9154     0.4867 H
65 H65    -7.3809    -5.5197    -0.2992 H
66 C66     8.8612    -0.8383     3.2461 C
67 H67     9.1121    -0.5856     4.2794 H
68 O68     8.0956     0.2189     2.7310 O
69 O69     8.7952     2.3749    -0.0101 O
70 O70    -7.1293    -3.8930     0.9677 O
71 O71    -8.5177    -0.8744     1.5698 O
72 H72     9.7913    -0.9784     2.6730 H
73 H73     8.2983    -1.7858     3.2357 H
74 H74     6.4884    -3.8447    -1.0395 H
75 H75     4.7544    -5.8356    -0.8158 H
76 H76    -5.0712     6.2725    -0.3612 H
@<TRIPOS>BOND
1 1 2 Ar
2 1 4 Ar
3 1 13 1
4 2 3 2
5 2 14 1
6 3 5 1
7 3 7 Ar
8 4 6 1
9 4 37 Ar
10 5 15 1
11 5 17 2
12 6 15 1
13 6 16 2
14 7 9 2
15 7 18 1
16 8 13 1
17 8 27 Ar
18 8 37 2
19 9 14 1
20 9 76 1
21 10 11 1
22 10 12 1
23 10 15 1
24 10 40 1
25 19 20 Ar
26 19 22 2
27 19 31 1
28 20 21 Ar
29 20 32 1
30 21 23 1
31 21 36 Ar
32 22 24 1
33 22 25 Ar
34 23 33 1
35 23 35 2
36 24 33 1
37 24 34 2
38 25 26 2
39 25 74 1
40 26 31 1
41 26 75 1
42 27 32 1
43 27 36 2
44 28 29 1
45 28 30 1
46 28 33 1
47 28 38 1
48 38 39 1
49 38 42 1
50 38 45 1
51 40 41 1
52 40 48 1
53 40 51 1
54 42 43 1
55 42 44 1
56 42 69 1
57 45 46 1
58 45 47 1
59 45 68 1
60 48 49 1
61 48 50 1
62 48 71 1
63 51 52 1
64 51 53 1
65 51 70 1
66 54 55 1
67 54 56 1
68 54 57 1
69 54 69 1
70 58 59 1
71 58 60 1
72 58 61 1
73 58 71 1
74 62 63 1
75 62 64 1
76 62 65 1
77 62 70 1
78 66 67 1
79 66 68 1
80 66 72 1
81 66 73 1
