# PDTzTI
# Created by GaussView 6.1.1
#

#
#

@<TRIPOS>MOLECULE
Molecule Name
42 47
SMALL
NO_CHARGES


@<TRIPOS>ATOM
1 C1    -3.0838     0.5270    -0.0443 C
2 C2    -4.3845     1.1188    -0.0576 C
3 C3    -5.6106     0.4785     0.0432 C
4 C4    -2.7626    -0.8175    -0.1595 C
5 C5    -5.9305    -0.9526     0.2263 C
6 C6    -3.6532    -1.9935    -0.3337 C
7 C7    -6.7001     1.3988     0.0056 C
8 C8    -0.7210    -0.0077    -0.0277 C
9 C9    -6.3001     2.6944    -0.1256 C
10 C10    -5.5860    -3.3228     0.2191 C
11 H11    -4.7845    -4.0382     0.3874 H
12 H12    -6.2919    -3.3107     1.0478 H
13 H13    -6.1229    -3.5950    -0.6948 H
14 S14    -1.6356     1.4697     0.0841 S
15 S15    -4.5881     2.8330    -0.2027 S
16 N16    -4.9945    -1.9845     0.0919 N
17 O17    -3.1747    -3.0261    -0.7625 O
18 O18    -7.0915    -1.2521     0.4745 O
19 H19    -7.7302     1.0745     0.0805 H
20 H20    -6.9159     3.5826    -0.1850 H
21 C21     4.3845    -1.1188     0.0576 C
22 C22     3.0838    -0.5270     0.0443 C
23 C23     2.7626     0.8175     0.1594 C
24 C24     5.6106    -0.4785    -0.0432 C
25 C25     3.6532     1.9935     0.3336 C
26 C26     5.9306     0.9526    -0.2262 C
27 C27     6.7001    -1.3989    -0.0054 C
28 C28     6.3001    -2.6944     0.1257 C
29 C29     0.7210     0.0076     0.0277 C
30 C30     5.5859     3.3229    -0.2190 C
31 H31     6.2929     3.3105    -1.0467 H
32 H32     4.7844     4.0380    -0.3888 H
33 H33     6.1213     3.5957     0.6956 H
34 S34     4.5881    -2.8331     0.2027 S
35 S35     1.6356    -1.4697    -0.0842 S
36 N36     4.9945     1.9845    -0.0919 N
37 O37     7.0916     1.2520    -0.4742 O
38 O38     3.1747     3.0262     0.7622 O
39 H39     7.7302    -1.0746    -0.0803 H
40 H40     6.9159    -3.5826     0.1850 H
41 N41     1.4285     1.0917     0.1526 N
42 N42    -1.4285    -1.0917    -0.1527 N
@<TRIPOS>BOND
1 1 2 Ar
2 1 4 Ar
3 1 14 1
4 2 3 Ar
5 2 15 1
6 3 5 1
7 3 7 Ar
8 4 6 1
9 4 42 Ar
10 5 16 1
11 5 18 2
12 6 16 1
13 6 17 2
14 7 9 2
15 7 19 1
16 8 14 1
17 8 29 Ar
18 8 42 2
19 9 15 1
20 9 20 1
21 10 11 1
22 10 12 1
23 10 13 1
24 10 16 1
25 21 22 Ar
26 21 24 Ar
27 21 34 1
28 22 23 Ar
29 22 35 1
30 23 25 1
31 23 41 Ar
32 24 26 1
33 24 27 Ar
34 25 36 1
35 25 38 2
36 26 36 1
37 26 37 2
38 27 28 2
39 27 39 1
40 28 34 1
41 28 40 1
42 29 35 1
43 29 41 2
44 30 31 1
45 30 32 1
46 30 33 1
47 30 36 1
