# PDTzTI-TEG-T
# Created by GaussView 6.1.1
#

#
#

@<TRIPOS>MOLECULE
Molecule Name
83 89
SMALL
NO_CHARGES


@<TRIPOS>ATOM
1 C1    -2.3302     0.7267    -0.4553 C
2 C2    -3.4637     1.5854    -0.3710 C
3 C3    -4.7890     1.2162    -0.2008 C
4 C4    -2.3234    -0.6449    -0.6731 C
5 C5    -5.3907    -0.1291    -0.0543 C
6 C6    -3.4567    -1.5674    -0.9354 C
7 C7    -5.6498     2.3389    -0.0874 C
8 C8    -0.1495    -0.3249    -0.5437 C
9 C9    -5.0050     3.5483    -0.1878 C
10 C10    -5.6610    -2.4765    -0.6365 C
11 H11    -6.6869    -2.1135    -0.5918 H
12 H12    -5.4651    -2.9115    -1.6189 H
13 S13    -0.7049     1.3096    -0.3068 S
14 S14    -3.2983     3.3098    -0.4223 S
15 N15    -4.7726    -1.2997    -0.5150 N
16 O16    -3.2155    -2.6394    -1.4607 O
17 O17    -6.5196    -0.1941     0.4113 O
18 H18    -6.7137     2.2284     0.0860 H
19 C19     4.5730    -2.5521    -0.7067 C
20 C20     3.4383    -1.6889    -0.6188 C
21 C21     3.4332    -0.3187    -0.4050 C
22 C22     5.8993    -2.1845    -0.8682 C
23 C23     4.5659     0.6107    -0.1547 C
24 C24     6.5123    -0.8437    -0.9876 C
25 C25     6.7598    -3.3179    -0.9743 C
26 C26     6.0946    -4.5032    -0.8802 C
27 C27     1.2588    -0.6375    -0.5312 C
28 C28     6.7683     1.5191    -0.4798 C
29 H29     7.5778     1.3586    -1.1888 H
30 H30     6.1723     2.3737    -0.8048 H
31 S31     4.4025    -4.2753    -0.6748 S
32 S32     1.8135    -2.2715    -0.7663 S
33 N33     5.8879     0.3320    -0.5424 N
34 O34     7.6576    -0.7852    -1.4138 O
35 O35     4.3157     1.6963     0.3374 O
36 N36     2.1951     0.2480    -0.3573 N
37 N37    -1.0857    -1.2103    -0.7193 N
38 C38     7.3181     1.7977     0.9234 C
39 H39     6.4833     1.7921     1.6350 H
40 C40    -5.4263    -3.5196     0.4633 C
41 H41    -4.3519    -3.5801     0.6786 H
42 C42     7.9115     3.1987     0.9661 C
43 H43     7.1222     3.9423     0.7603 H
44 H44     8.3144     3.3967     1.9709 H
45 C45     8.3287     0.7491     1.3678 C
46 H46     7.8952    -0.2620     1.2946 H
47 H47     9.2196     0.7778     0.7215 H
48 C48    -6.1409    -3.1500     1.7554 C
49 H49    -5.8833    -3.8750     2.5425 H
50 H50    -5.8216    -2.1489     2.0890 H
51 C51    -5.8536    -4.8916    -0.0420 C
52 H52    -5.2981    -5.1311    -0.9643 H
53 H53    -6.9307    -4.8941    -0.2759 H
54 C54     9.5601     4.5585     0.0102 C
55 H55    10.0276     4.7655     0.9860 H
56 H56    10.3341     4.5441    -0.7612 H
57 H57     8.8453     5.3667    -0.2137 H
58 C58    -8.2618    -2.6457     2.6063 C
59 H59    -7.9993    -1.5942     2.7995 H
60 H60    -9.3206    -2.7064     2.3416 H
61 H61    -8.0880    -3.2317     3.5232 H
62 C62    -5.9786    -7.1404     0.5846 C
63 H63    -5.7217    -7.8094     1.4098 H
64 H64    -7.0653    -7.1848     0.4103 H
65 H65    -5.4622    -7.4814    -0.3272 H
66 C66     9.6377     0.1083     3.1983 C
67 H67     9.8493     0.3874     4.2336 H
68 O68     8.6828     1.0121     2.7082 O
69 O69     8.9344     3.3027    -0.0007 O
70 O70    -5.5720    -5.8487     0.9521 O
71 O71    -7.5306    -3.1581     1.5243 O
72 C72    -5.5576     4.8811    -0.1323 C
73 C73    -4.9025     6.0764     0.0809 C
74 S74    -7.2612     5.1494    -0.3432 S
75 C75    -5.7723     7.1956     0.0810 C
76 H76    -3.8326     6.1436     0.2521 H
77 C77    -7.0791     6.8444    -0.1310 C
78 H78    -5.4458     8.2176     0.2385 H
79 H79    10.5709     0.1526     2.6149 H
80 H80     9.2609    -0.9272     3.1766 H
81 H81     7.8283    -3.2194    -1.1181 H
82 H82     6.5031    -5.5049    -0.9165 H
83 H83    -7.9470     7.4896    -0.1770 H
@<TRIPOS>BOND
1 1 2 Ar
2 1 4 Ar
3 1 13 1
4 2 3 Ar
5 2 14 1
6 3 5 1
7 3 7 Ar
8 4 6 1
9 4 37 Ar
10 5 15 1
11 5 17 2
12 6 15 1
13 6 16 2
14 7 9 2
15 7 18 1
16 8 13 1
17 8 27 Ar
18 8 37 2
19 9 14 1
20 9 72 Ar
21 10 11 1
22 10 12 1
23 10 15 1
24 10 40 1
25 19 20 Ar
26 19 22 2
27 19 31 1
28 20 21 Ar
29 20 32 1
30 21 23 1
31 21 36 Ar
32 22 24 1
33 22 25 Ar
34 23 33 1
35 23 35 2
36 24 33 1
37 24 34 2
38 25 26 2
39 25 81 1
40 26 31 1
41 26 82 1
42 27 32 1
43 27 36 2
44 28 29 1
45 28 30 1
46 28 33 1
47 28 38 1
48 38 39 1
49 38 42 1
50 38 45 1
51 40 41 1
52 40 48 1
53 40 51 1
54 42 43 1
55 42 44 1
56 42 69 1
57 45 46 1
58 45 47 1
59 45 68 1
60 48 49 1
61 48 50 1
62 48 71 1
63 51 52 1
64 51 53 1
65 51 70 1
66 54 55 1
67 54 56 1
68 54 57 1
69 54 69 1
70 58 59 1
71 58 60 1
72 58 61 1
73 58 71 1
74 62 63 1
75 62 64 1
76 62 65 1
77 62 70 1
78 66 67 1
79 66 68 1
80 66 79 1
81 66 80 1
82 72 73 2
83 72 74 1
84 73 75 Ar
85 73 76 1
86 74 77 1
87 75 77 2
88 75 78 1
89 77 83 1
