# PDTz
# Created by GaussView 6.1.1
#

#
#

@<TRIPOS>MOLECULE
Molecule Name
64 72
SMALL
NO_CHARGES


@<TRIPOS>ATOM
1 C1    -2.3388     1.3197     0.0036 C
2 C2    -3.7105     1.3069    -0.0996 C
3 C3    -4.5372     0.1650    -0.0615 C
4 C4    -3.9093    -1.0833     0.0976 C
5 C5    -2.5375    -1.0709     0.2010 C
6 C6    -1.7108     0.0713     0.1627 C
7 H7    -1.7828     2.2449    -0.0185 H
8 H8    -4.4658    -2.0082     0.1189 H
9 C9    -0.3422    -0.4141     0.2548 C
10 C10    -5.7592     2.1467    -0.2665 C
11 C11    -5.9079     0.6509    -0.1516 C
12 C12    -0.4883    -1.9078     0.3683 C
13 O13    -4.4325     2.4637    -0.2356 O
14 O14    -1.8146    -2.2272     0.3372 O
15 O15    -6.5803     3.0146    -0.4003 O
16 O16     0.3358    -2.7743     0.4994 O
17 C17    -7.1288     0.0131    -0.1546 C
18 C18    -7.2535    -1.4940    -0.2308 C
19 C19     0.8812     0.2239     0.2622 C
20 C20     1.0096     1.7298     0.3365 C
21 N21    -8.5938    -1.7977    -0.2222 N
22 N22     2.3534     2.0310     0.3404 N
23 O23    -6.3747    -2.3359    -0.3178 O
24 O24     0.1343     2.5750     0.4108 O
25 C25    -9.0820    -3.1564    -0.3080 C
26 H26    -8.2060    -3.8031    -0.3829 H
27 H27    -9.6582    -3.4204     0.5830 H
28 H28    -9.7111    -3.2872    -1.1927 H
29 C29     2.8391     3.3913     0.4255 C
30 H30     3.4590     3.5279     1.3156 H
31 H31     3.4214     3.6546    -0.4617 H
32 H32     1.9604     4.0353     0.4900 H
33 C33    -9.3450    -0.6377    -0.1372 C
34 C34    -8.5054     0.5063    -0.1051 C
35 C35     2.2503    -0.2695     0.2254 C
36 C36     3.0979     0.8675     0.2626 C
37 C37    -9.0990     1.7711     0.0098 C
38 C38   -10.4863     1.8806     0.0809 C
39 C39   -11.3019     0.7517     0.0377 C
40 C40   -10.7205    -0.5032    -0.0694 C
41 C41     2.8552    -1.5312     0.1111 C
42 C42     4.4710     0.7354     0.2097 C
43 C43     4.2345    -1.6405     0.0532 C
44 C44     5.0881    -0.5202     0.1143 C
45 H45   -10.9391     2.8635     0.1657 H
46 H46    -8.4846     2.6578     0.0292 H
47 H47     2.2465    -2.4216     0.0726 H
48 H48     4.6698    -2.6274    -0.0573 H
49 F49     5.2404     1.8467     0.2525 F
50 C50     6.5322    -0.6837     0.0849 C
51 C51     7.2325    -1.8636     0.2722 C
52 S52     7.6761     0.5893    -0.2245 S
53 H53     6.7767    -2.8181     0.5088 H
54 C54     8.9590    -0.5675    -0.0934 C
55 C55    10.3392    -0.1751    -0.2596 C
56 S56    11.6294    -1.3349    -0.1186 S
57 C57    12.0808     1.1126    -0.6236 C
58 C58    12.7460    -0.0704    -0.4374 C
59 H59    12.5526     2.0644    -0.8393 H
60 N60     8.5780    -1.7951     0.1728 N
61 N61    10.7249     1.0477    -0.5225 N
62 F62   -11.5126    -1.5980    -0.1014 F
63 H63   -12.3841     0.8249     0.0872 H
64 H64    13.8118    -0.2540    -0.4718 H
@<TRIPOS>BOND
1 1 2 2
2 1 6 Ar
3 1 7 1
4 2 3 Ar
5 2 13 1
6 3 4 Ar
7 3 11 1
8 4 5 2
9 4 8 1
10 5 6 Ar
11 5 14 1
12 6 9 1
13 9 12 1
14 9 19 2
15 10 11 1
16 10 13 1
17 10 15 2
18 11 17 2
19 12 14 1
20 12 16 2
21 17 18 1
22 17 34 1
23 18 21 Ar
24 18 23 2
25 19 20 1
26 19 35 1
27 20 22 Ar
28 20 24 2
29 21 25 1
30 21 33 1
31 22 29 1
32 22 36 1
33 25 26 1
34 25 27 1
35 25 28 1
36 29 30 1
37 29 31 1
38 29 32 1
39 33 34 Ar
40 33 40 2
41 34 37 Ar
42 35 36 Ar
43 35 41 Ar
44 36 42 2
45 37 38 Ar
46 37 46 1
47 38 39 Ar
48 38 45 1
49 39 40 Ar
50 39 63 1
51 40 62 1
52 41 43 2
53 41 47 1
54 42 44 Ar
55 42 49 1
56 43 44 Ar
57 43 48 1
58 44 50 1
59 50 51 2
60 50 52 1
61 51 53 1
62 51 60 Ar
63 52 54 1
64 54 55 Ar
65 54 60 2
66 55 56 1
67 55 61 2
68 56 58 1
69 57 58 2
70 57 59 1
71 57 61 Ar
72 58 64 1
