# PDTzTI-Se
# Created by GaussView 6.1.1
#

#
#

@<TRIPOS>MOLECULE
Molecule Name
62 69
SMALL
NO_CHARGES


@<TRIPOS>ATOM
1 C1     7.8382    -0.2461    -0.0412 C
2 C2     9.2662    -0.2243    -0.0849 C
3 C3    10.1287    -1.3027    -0.2148 C
4 C4     7.0111    -1.3495     0.1124 C
5 C5     9.8422    -2.7435    -0.3783 C
6 C6     7.3633    -2.7829     0.2816 C
7 C7    11.4956    -0.8955    -0.2347 C
8 C8     5.4603     0.2092     0.0333 C
9 C9    11.6528     0.4527    -0.1172 C
10 S10     6.8836     1.1966    -0.1395 S
11 S11    10.1440     1.2658     0.0165 S
12 N12     8.5783    -3.3143    -0.1883 N
13 O13     6.5286    -3.5341     0.7483 O
14 O14    10.7757    -3.4835    -0.6603 O
15 C15     0.3393     1.2176     0.1443 C
16 C16     1.7635     1.2451     0.1016 C
17 C17     2.5883     2.3526    -0.0505 C
18 C18    -0.5329     2.2924     0.2484 C
19 C19     2.2348     3.7858    -0.2150 C
20 C20    -0.2586     3.7400     0.3868 C
21 C21    -1.8892     1.8810     0.2766 C
22 C22    -2.0640     0.5203     0.1888 C
23 C23     4.1431     0.7969     0.0267 C
24 S24    -0.5247    -0.2826     0.0628 S
25 S25     2.7226    -0.1960     0.1968 S
26 N26     1.0067     4.3124     0.2297 N
27 O27    -1.2065     4.4765     0.6265 O
28 O28     3.0755     4.5440    -0.6583 O
29 N29     3.9191     2.0728    -0.0942 N
30 N30     5.6799    -1.0669     0.1563 N
31 H31    -2.6955     2.5980     0.3824 H
32 C32     8.5806    -4.7784    -0.3051 C
33 H33     9.1984    -5.0557    -1.1574 H
34 H34     9.0004    -5.2357     0.5962 H
35 H35     7.5540    -5.1149    -0.4296 H
36 C36     0.9981     5.7773     0.3422 C
37 H37     0.6228     6.2319    -0.5796 H
38 H38     0.3399     6.0558     1.1631 H
39 H39     2.0174     6.1146     0.5154 H
40 C40    -3.2901    -0.2312     0.1888 C
41 C41    -3.4548    -1.5862     0.3451 C
42 C42    -4.7993    -2.0379     0.3043 C
43 H43    -2.6260    -2.2692     0.5054 H
44 C44    -5.7669    -1.0519     0.1137 C
45 C45    -7.1773    -1.2726     0.0478 C
46 C46    -8.1244    -0.3161    -0.1211 C
47 H47    -7.4772    -2.3167     0.1470 H
48 H48    -7.8220     0.7279    -0.2175 H
49 C49    -9.5378    -0.5306    -0.1898 C
50 C50   -10.4976     0.4636    -0.3670 C
51 C51   -11.8515     0.0135    -0.4051 C
52 C52   -11.9984    -1.3327    -0.2608 C
53 H53   -12.6852     0.6945    -0.5382 H
54 C54    -5.1465    -3.4097     0.4525 C
55 N55    -5.4438    -4.5278     0.5714 N
56 C56   -10.1430     1.8343    -0.5011 C
57 N57    -9.8410     2.9524    -0.6101 N
58 H58    12.3063    -1.6054    -0.3385 H
59 Se59    -4.9475     0.6175    -0.0466 Se
60 Se60   -10.3677    -2.1958    -0.0542 Se
61 H61    12.5743     1.0202    -0.0982 H
62 H62   -12.9248    -1.8917    -0.2579 H
@<TRIPOS>BOND
1 1 2 Ar
2 1 4 Ar
3 1 10 1
4 2 3 Ar
5 2 11 1
6 3 5 1
7 3 7 Ar
8 4 6 1
9 4 30 Ar
10 5 12 1
11 5 14 2
12 6 12 1
13 6 13 2
14 7 9 2
15 7 58 1
16 8 10 1
17 8 23 Ar
18 8 30 2
19 9 11 1
20 9 61 1
21 12 32 1
22 15 16 Ar
23 15 18 Ar
24 15 24 1
25 16 17 Ar
26 16 25 1
27 17 19 1
28 17 29 Ar
29 18 20 1
30 18 21 Ar
31 19 26 1
32 19 28 2
33 20 26 1
34 20 27 2
35 21 22 2
36 21 31 1
37 22 24 1
38 22 40 Ar
39 23 25 1
40 23 29 2
41 26 36 1
42 32 33 1
43 32 34 1
44 32 35 1
45 36 37 1
46 36 38 1
47 36 39 1
48 40 41 2
49 40 59 1
50 41 42 Ar
51 41 43 1
52 42 44 Ar
53 42 54 Ar
54 44 45 Ar
55 44 59 1
56 45 46 2
57 45 47 1
58 46 48 1
59 46 49 Ar
60 49 50 Ar
61 49 60 1
62 50 51 Ar
63 50 56 Ar
64 51 52 2
65 51 53 1
66 52 60 1
67 52 62 1
68 54 55 3
69 56 57 3
