# PDTzTIT
# Created by GaussView 6.1.1
#

#
#

@<TRIPOS>MOLECULE
Molecule Name
49 55
SMALL
NO_CHARGES


@<TRIPOS>ATOM
1 C1     1.8489     0.5742     0.0159 C
2 C2     3.2429     0.2803     0.0213 C
3 C3     4.3052     1.1703     0.0940 C
4 C4     1.2390     1.8159    -0.1160 C
5 C5     4.3102     2.6432     0.2284 C
6 C6     1.8475     3.1584    -0.2866 C
7 C7     5.5613     0.5099     0.0921 C
8 C8    -0.5752     0.5748     0.0020 C
9 C9     5.4732    -0.8589     0.0126 C
10 C10     3.4524     4.8787     0.2263 C
11 H11     2.5214     5.3983     0.4412 H
12 H12     4.1842     5.0245     1.0187 H
13 H13     3.8674     5.2630    -0.7106 H
14 S14     0.6414    -0.6644     0.1371 S
15 S15     3.8094    -1.3557    -0.0728 S
16 N16     3.1673     3.4421     0.1155 N
17 O17     1.1495     4.0661    -0.6975 O
18 O18     5.3858     3.1935     0.4275 O
19 H19     6.4924     1.0581     0.1719 H
20 C20    -5.8002     0.5353     0.0227 C
21 C21    -4.4013     0.2439     0.0285 C
22 C22    -3.7934    -0.9960     0.1599 C
23 C23    -6.8549    -0.3593    -0.0809 C
24 C24    -4.4051    -2.3382     0.3349 C
25 C25    -6.8512    -1.8274    -0.2492 C
26 C26    -8.1201     0.2998    -0.0636 C
27 C27    -8.0157     1.6527     0.0551 C
28 C28    -1.9783     0.2427     0.0422 C
29 C29    -5.9933    -4.0634    -0.2195 C
30 H30    -6.6815    -4.2124    -1.0497 H
31 H31    -5.0531    -4.5854    -0.3812 H
32 H32    -6.4600    -4.4419     0.6952 H
33 S33    -6.3766     2.1645     0.1452 S
34 S34    -3.1945     1.4816    -0.0934 S
35 N35    -5.7121    -2.6269    -0.1001 N
36 O36    -7.9163    -2.3773    -0.4994 O
37 O37    -3.7154    -3.2385     0.7742 O
38 N38    -2.4316    -0.9698     0.1700 N
39 N39    -0.1219     1.7870    -0.1258 N
40 C40     6.5327    -1.8392    -0.0125 C
41 C41     6.4524    -3.1991     0.2056 C
42 S42     8.1726    -1.3715    -0.3456 S
43 C43     7.7061    -3.8533     0.1106 C
44 C44     8.7283    -2.9883    -0.1776 C
45 H45    -9.0531    -0.2436    -0.1433 H
46 H46     5.5235    -3.7073     0.4456 H
47 H47     7.8472    -4.9185     0.2562 H
48 H48    -8.8119     2.3847     0.0980 H
49 H49     9.7798    -3.2123    -0.3034 H
@<TRIPOS>BOND
1 1 2 Ar
2 1 4 Ar
3 1 14 1
4 2 3 Ar
5 2 15 1
6 3 5 1
7 3 7 Ar
8 4 6 1
9 4 39 Ar
10 5 16 1
11 5 18 2
12 6 16 1
13 6 17 2
14 7 9 2
15 7 19 1
16 8 14 1
17 8 28 Ar
18 8 39 2
19 9 15 1
20 9 40 Ar
21 10 11 1
22 10 12 1
23 10 13 1
24 10 16 1
25 20 21 Ar
26 20 23 Ar
27 20 33 1
28 21 22 Ar
29 21 34 1
30 22 24 1
31 22 38 Ar
32 23 25 1
33 23 26 Ar
34 24 35 1
35 24 37 2
36 25 35 1
37 25 36 2
38 26 27 2
39 26 45 1
40 27 33 1
41 27 48 1
42 28 34 1
43 28 38 2
44 29 30 1
45 29 31 1
46 29 32 1
47 29 35 1
48 40 41 2
49 40 42 1
50 41 43 Ar
51 41 46 1
52 42 44 1
53 43 44 2
54 43 47 1
55 44 49 1
