# PFCITVT
# Created by GaussView 6.1.1
#

#
#

@<TRIPOS>MOLECULE
Molecule Name
70 78
SMALL
NO_CHARGES


@<TRIPOS>ATOM
1 C1    -3.6721     1.2405    -0.2300 C
2 C2    -5.0392     1.3404    -0.1145 C
3 C3    -5.9527     0.2697    -0.1632 C
4 C4    -5.4374    -1.0293    -0.3030 C
5 C5    -4.0705    -1.1299    -0.4175 C
6 C6    -3.1596    -0.0549    -0.4087 C
7 H7    -3.0364     2.1135    -0.1938 H
8 H8    -6.0727    -1.9030    -0.3296 H
9 C9    -1.8346    -0.6435    -0.4907 C
10 C10    -7.0098     2.3132     0.2248 C
11 C11    -7.2677     0.8437     0.0706 C
12 C12    -2.0837    -2.1162    -0.5730 C
13 O13    -5.6706     2.5427     0.0884 O
14 O14    -3.4317    -2.3389    -0.5378 O
15 O15    -7.7637     3.2408     0.3776 O
16 O16    -1.3269    -3.0448    -0.7123 O
17 C17    -8.5220     0.2887     0.1178 C
18 C18    -8.8206    -1.0977    -0.4104 C
19 C19    -0.5763    -0.0885    -0.5301 C
20 C20    -0.3381     1.3768    -0.8237 C
21 N21   -10.1661    -1.3085    -0.2616 N
22 N22     1.0194     1.5765    -0.8319 N
23 O23    -8.0549    -1.8928    -0.9366 O
24 O24    -1.1598     2.2467    -1.0709 O
25 C25   -10.8264    -2.5219    -0.6915 C
26 H26   -10.0692    -3.1589    -1.1514 H
27 H27   -11.2681    -3.0437     0.1619 H
28 H28   -11.6031    -2.2953    -1.4266 H
29 C29     1.6224     2.8607    -1.1187 C
30 H30     2.1875     3.2241    -0.2561 H
31 H31     2.2809     2.7893    -1.9882 H
32 H32     0.8112     3.5569    -1.3372 H
33 C33   -10.7589    -0.2105     0.3418 C
34 C34    -9.8021     0.8080     0.5823 C
35 C35     0.7430    -0.6646    -0.3718 C
36 C36     1.6736     0.3901    -0.5446 C
37 C37   -10.1971     1.9713     1.2542 C
38 C38   -11.5258     2.1225     1.6449 C
39 C39   -12.4690     1.1297     1.3791 C
40 C40   -12.0743    -0.0331     0.7336 C
41 C41     1.2328    -1.9270    -0.0052 C
42 C42     3.0267     0.1684    -0.3929 C
43 C43     2.5930    -2.1272     0.1474 C
44 C44     3.5359    -1.0950    -0.0529 C
45 H45   -13.5090     1.2412     1.6727 H
46 H46   -11.8349     3.0267     2.1606 H
47 H47    -9.4823     2.7538     1.4619 H
48 H48     0.5552    -2.7529     0.1545 H
49 H49     2.9383    -3.1135     0.4349 H
50 F50   -12.9916    -0.9988     0.5015 F
51 F51     3.8853     1.1966    -0.5678 F
52 C52     4.9578    -1.3541     0.0974 C
53 C53     5.5440    -2.5839     0.3333 C
54 S54     6.1781    -0.1081     0.0152 S
55 C55     6.9435    -2.5033     0.4467 C
56 H56     5.0010    -3.5175     0.4169 H
57 C57     7.4700    -1.2286     0.3029 C
58 C58     8.8513    -0.8456     0.3677 C
59 H59     9.5400    -1.6680     0.5560 H
60 C60     9.3248     0.4151     0.2163 C
61 H61     8.6322     1.2347     0.0277 H
62 C62    10.7043     0.8087     0.2799 C
63 C63    11.2213     2.0842     0.1292 C
64 S64    12.0153    -0.3002     0.5698 S
65 C65    12.6328     2.1748     0.2425 C
66 C66    13.1926     0.9516     0.4823 C
67 H67    13.1923     3.0988     0.1498 H
68 H68    14.2420     0.7143     0.6130 H
69 Cl69     7.9173    -3.9017     0.7384 Cl
70 Cl70    10.2390     3.4741    -0.1747 Cl
@<TRIPOS>BOND
1 1 2 2
2 1 6 Ar
3 1 7 1
4 2 3 Ar
5 2 13 1
6 3 4 Ar
7 3 11 1
8 4 5 2
9 4 8 1
10 5 6 Ar
11 5 14 1
12 6 9 1
13 9 12 1
14 9 19 2
15 10 11 1
16 10 13 1
17 10 15 2
18 11 17 2
19 12 14 1
20 12 16 2
21 17 18 1
22 17 34 1
23 18 21 Ar
24 18 23 2
25 19 20 1
26 19 35 1
27 20 22 Ar
28 20 24 2
29 21 25 1
30 21 33 1
31 22 29 1
32 22 36 1
33 25 26 1
34 25 27 1
35 25 28 1
36 29 30 1
37 29 31 1
38 29 32 1
39 33 34 Ar
40 33 40 2
41 34 37 Ar
42 35 36 Ar
43 35 41 Ar
44 36 42 2
45 37 38 Ar
46 37 47 1
47 38 39 Ar
48 38 46 1
49 39 40 Ar
50 39 45 1
51 40 50 1
52 41 43 2
53 41 48 1
54 42 44 Ar
55 42 51 1
56 43 44 Ar
57 43 49 1
58 44 52 1
59 52 53 2
60 52 54 1
61 53 55 Ar
62 53 56 1
63 54 57 1
64 55 57 Ar
65 55 69 1
66 57 58 Ar
67 58 59 1
68 58 60 2
69 60 61 1
70 60 62 Ar
71 62 63 2
72 62 64 1
73 63 65 Ar
74 63 70 1
75 64 66 1
76 65 66 2
77 65 67 1
78 66 68 1
