# PI-BN
# Created by GaussView 6.1.1
#

#
#

@<TRIPOS>MOLECULE
Molecule Name
71 79
SMALL
NO_CHARGES


@<TRIPOS>ATOM
1 C1     7.7744    -1.7559    -0.3919 C
2 C2     9.1435    -1.9378    -0.5955 C
3 C3    10.0213    -0.8558    -0.5973 C
4 C4     9.5454     0.4443    -0.4084 C
5 C5     8.1840     0.6106    -0.2145 C
6 C6     7.2651    -0.4677    -0.1873 C
7 H7     7.1095    -2.6065    -0.3736 H
8 H8    10.2196     1.2955    -0.4191 H
9 C9     5.9291     0.1097    -0.0064 C
10 C10     6.1612     1.6054     0.0738 C
11 O11     5.3603     2.5117     0.2460 O
12 C12     4.6800    -0.4573     0.1062 C
13 C13     4.4648    -1.9476     0.2842 C
14 N14     3.1086    -2.1513     0.3901 N
15 O15     5.2820    -2.8501     0.3679 O
16 C16     2.5131    -3.4457     0.5888 C
17 H17     1.9362    -3.4688     1.5205 H
18 H18     1.8528    -3.7034    -0.2476 H
19 H19     3.3233    -4.1748     0.6476 H
20 C20     3.3341     0.1171     0.1185 C
21 C21     2.4204    -0.9565     0.2752 C
22 C22     2.7878     1.3966    -0.0393 C
23 C23     1.0499    -0.7961     0.3034 C
24 C24     1.4081     1.5744    -0.0254 C
25 C25     0.5210     0.5003     0.1505 C
26 H26     3.4394     2.2489    -0.1623 H
27 H27     1.0136     2.5762    -0.1738 H
28 H28     9.5248    -2.9435    -0.7471 H
29 N29     7.5146     1.8111    -0.0412 N
30 H30     0.3944    -1.6456     0.4657 H
31 C31    -0.9229     0.6946     0.1720 C
32 C32    -1.9145    -0.2330    -0.1087 C
33 S33    -1.6038     2.2457     0.5998 S
34 C34    -3.2254     0.2760    -0.0018 C
35 H35    -1.6843    -1.2490    -0.4132 H
36 C36    -3.1893     1.6135     0.3747 C
37 C37    -4.5065     2.1339     0.5002 C
38 S38    -5.1920     3.6610     0.8800 S
39 C39    -6.7107     1.6812     0.3312 C
40 C40    -6.7847     2.9947     0.6722 C
41 H41    -7.5407     1.0155     0.1318 H
42 C42     8.1269     3.1113     0.0075 C
43 H43     8.8449     3.1713     0.8337 H
44 H44     8.6447     3.3341    -0.9330 H
45 H45     7.3328     3.8435     0.1652 H
46 N46    -5.4344     1.2072     0.2423 N
47 B47    -4.7608    -0.2271    -0.1445 B
48 C48    -5.2395    -0.5973    -1.6453 C
49 C49    -4.5056    -0.2150    -2.7791 C
50 C50    -6.4529    -1.2684    -1.8705 C
51 C51    -4.9560    -0.4837    -4.0720 C
52 H52    -3.5562     0.3021    -2.6500 H
53 C53    -6.9164    -1.5386    -3.1579 C
54 H54    -7.0407    -1.6052    -1.0175 H
55 C55    -6.1670    -1.1459    -4.2663 C
56 H56    -4.3590    -0.1781    -4.9286 H
57 H57    -7.8592    -2.0636    -3.2962 H
58 H58    -6.5210    -1.3597    -5.2721 H
59 C59    -5.1265    -1.3211     0.9913 C
60 C60    -5.5369    -0.9775     2.2882 C
61 C61    -4.9603    -2.6892     0.7204 C
62 C62    -5.7774    -1.9440     3.2655 C
63 H63    -5.6711     0.0711     2.5514 H
64 C64    -5.1912    -3.6638     1.6903 C
65 H65    -4.6531    -2.9996    -0.2770 H
66 C66    -5.6044    -3.2946     2.9700 C
67 H67    -6.0989    -1.6406     4.2597 H
68 H68    -5.0554    -4.7149     1.4442 H
69 H69    -5.7914    -4.0518     3.7277 H
70 H70    11.0852    -1.0180    -0.7492 H
71 H71    -7.6654     3.6057     0.8104 H
@<TRIPOS>BOND
1 1 2 Ar
2 1 6 Ar
3 1 7 1
4 2 3 Ar
5 2 28 1
6 3 4 Ar
7 3 70 1
8 4 5 2
9 4 8 1
10 5 6 Ar
11 5 29 1
12 6 9 1
13 9 10 1
14 9 12 2
15 10 11 2
16 10 29 Ar
17 12 13 1
18 12 20 1
19 13 14 Ar
20 13 15 2
21 14 16 1
22 14 21 1
23 16 17 1
24 16 18 1
25 16 19 1
26 20 21 Ar
27 20 22 Ar
28 21 23 2
29 22 24 Ar
30 22 26 1
31 23 25 Ar
32 23 30 1
33 24 25 Ar
34 24 27 1
35 25 31 1
36 29 42 1
37 31 32 Ar
38 31 33 1
39 32 34 Ar
40 32 35 1
41 33 36 1
42 34 36 Ar
43 34 47 1
44 36 37 Ar
45 37 38 1
46 37 46 Ar
47 38 40 1
48 39 40 2
49 39 41 1
50 39 46 Ar
51 40 71 1
52 42 43 1
53 42 44 1
54 42 45 1
55 46 47 1
56 47 48 1
57 47 59 1
58 48 49 Ar
59 48 50 Ar
60 49 51 Ar
61 49 52 1
62 50 53 Ar
63 50 54 1
64 51 55 Ar
65 51 56 1
66 53 55 Ar
67 53 57 1
68 55 58 1
69 59 60 Ar
70 59 61 Ar
71 60 62 Ar
72 60 63 1
73 61 64 Ar
74 61 65 1
75 62 66 Ar
76 62 67 1
77 64 66 Ar
78 64 68 1
79 66 69 1
