# pNB-TzDP
# Created by GaussView 6.1.1
#

#
#

@<TRIPOS>MOLECULE
Molecule Name
101 111
SMALL
NO_CHARGES


@<TRIPOS>ATOM
1 C1     6.7238     2.9799    -0.6978 C
2 C2     6.7517     1.5538    -0.3470 C
3 C3     5.5494     0.8346    -0.1640 C
4 C4     4.3015     1.4855    -0.3160 C
5 C5     4.2593     2.9198    -0.6646 C
6 C6     7.9689     0.9058    -0.1918 C
7 C7     5.6133    -0.5529     0.1789 C
8 C8     6.8581    -1.2052     0.3300 C
9 C9     8.0484    -0.4867     0.1463 C
10 C10     6.8955    -2.6436     0.6771 C
11 C11     4.4324    -2.6975     0.7171 C
12 C12     4.4093    -1.2727     0.3639 C
13 C13     3.1953    -0.6281     0.2089 C
14 C14     3.1111     0.7647    -0.1306 C
15 C15     5.7052    -4.7143     1.2247 C
16 H16     4.8226    -4.9075     1.8385 H
17 H17     6.6053    -4.8727     1.8223 H
18 C18     5.4437     4.9914    -1.2125 C
19 H19     6.3304     5.1867    -1.8196 H
20 H20     4.5475     5.1454    -1.8173 H
21 N21     5.6726    -3.2910     0.8730 N
22 N22     5.4795     3.5692    -0.8578 N
23 O23     7.9355    -3.2740     0.8005 O
24 O24     3.3955    -3.3340     0.8713 O
25 O25     7.7555     3.6242    -0.8480 O
26 O26     3.2154     3.5468    -0.7919 O
27 C27     9.4128    -0.9218     0.2450 C
28 C28     1.7572     1.1952    -0.2361 C
29 S29     9.5431     1.6181    -0.3717 S
30 S30     1.6274    -1.3477     0.3977 S
31 C31    10.2842     0.0883    -0.0041 C
32 C32     0.8599     0.1896     0.0167 C
33 H33     9.6952    -1.9356     0.4890 H
34 H34     1.4877     2.2067    -0.5039 H
35 C35    -0.5750     0.3027     0.0009 C
36 C36    -1.3389     1.4549    -0.0617 C
37 S37    -1.6438    -1.0666     0.0596 S
38 H38    -0.9260     2.4570    -0.0936 H
39 C39    -3.0049     0.0193    -0.0041 C
40 N40    -2.6786     1.2916    -0.0664 N
41 C41    -4.3666    -0.4420     0.0073 C
42 C42    -4.8570    -1.7223     0.0771 C
43 S43    -5.6510     0.7220    -0.0789 S
44 C44    -6.2731    -1.7885     0.0542 C
45 H45    -4.2467    -2.6158     0.1401 H
46 C46    -6.8537    -0.5262    -0.0260 C
47 C47    -8.2419    -0.2007    -0.0361 C
48 C48    -6.8817    -3.1335     0.1004 C
49 C49    -9.3237    -1.0719     0.0347 C
50 C50    -9.3778    -2.5467     0.0888 C
51 N51    -8.2557    -3.3795    -0.0272 N
52 O52    -6.1313    -4.0940     0.2173 O
53 O53   -10.4779    -3.0729     0.2002 O
54 C54   -10.5636    -0.3813     0.0379 C
55 C55   -10.4320     0.9815    -0.0373 C
56 S56    -8.7646     1.4519    -0.1047 S
57 H57   -11.5088    -0.9087     0.0910 H
58 C58   -11.4475     2.0065    -0.0673 C
59 S59   -13.1541     1.6455    -0.0007 S
60 C60   -12.3112     4.0312    -0.1562 C
61 C61   -13.4834     3.3305    -0.0853 C
62 H62   -12.2371     5.1109    -0.2183 H
63 N63   -11.1721     3.2842    -0.1458 N
64 C64    -8.5905    -4.8081    -0.1007 C
65 H65    -8.6905    -5.2322     0.9032 H
66 H66    -9.5386    -4.9128    -0.6232 H
67 H67    -7.7867    -5.3235    -0.6218 H
68 C68     5.4237     5.8971     0.0142 C
69 H69     4.5525     5.6372     0.6270 H
70 H70     6.3221     5.7037     0.6157 H
71 C71     5.7098    -5.6169    -0.0044 C
72 H72     4.8203    -5.3943    -0.6057 H
73 H73     6.5912    -5.3826    -0.6163 H
74 C74     5.7326    -7.0908     0.3912 C
75 H75     6.5748    -7.2605     1.0786 H
76 H76     4.8198    -7.3318     0.9585 H
77 C77     5.3774     7.3692    -0.3857 C
78 H78     4.4476     7.5685    -0.9416 H
79 H79     6.2023     7.5728    -1.0849 H
80 C80     5.4767     8.3570     0.7825 C
81 H81     6.4077     8.1352     1.3280 H
82 C82     5.8588    -8.0698    -0.7819 C
83 H83     6.7724    -7.8067    -1.3385 H
84 C84     4.6749    -7.9804    -1.7437 C
85 H85     3.7327    -8.1919    -1.2201 H
86 H86     4.5863    -6.9901    -2.2036 H
87 H87     4.7744    -8.7115    -2.5550 H
88 C88     6.0185    -9.4980    -0.2634 C
89 H89     6.1538   -10.2081    -1.0879 H
90 H90     6.8841    -9.5890     0.4039 H
91 H91     5.1288    -9.8094     0.3000 H
92 C92     5.5687     9.7889     0.2576 C
93 H93     4.6595    10.0600    -0.2956 H
94 H94     5.6839    10.5072     1.0780 H
95 H95     6.4212     9.9142    -0.4209 H
96 C96     4.3101     8.2209     1.7599 C
97 H97     3.3532     8.3908     1.2478 H
98 H98     4.2694     7.2291     2.2233 H
99 H99     4.3890     8.9580     2.5678 H
100 H100   -14.4976     3.7069    -0.0785 H
101 H101    11.3661     0.0214     0.0075 H
@<TRIPOS>BOND
1 1 2 1
2 1 22 1
3 1 25 2
4 2 3 Ar
5 2 6 Ar
6 3 4 Ar
7 3 7 Ar
8 4 5 1
9 4 14 Ar
10 5 22 1
11 5 26 2
12 6 9 Ar
13 6 29 1
14 7 8 Ar
15 7 12 Ar
16 8 9 Ar
17 8 10 1
18 9 27 Ar
19 10 21 1
20 10 23 2
21 11 12 1
22 11 21 1
23 11 24 2
24 12 13 2
25 13 14 Ar
26 13 30 1
27 14 28 Ar
28 15 16 1
29 15 17 1
30 15 21 1
31 15 71 1
32 18 19 1
33 18 20 1
34 18 22 1
35 18 68 1
36 27 31 2
37 27 33 1
38 28 32 2
39 28 34 1
40 29 31 1
41 30 32 1
42 31 101 1
43 32 35 Ar
44 35 36 2
45 35 37 1
46 36 38 1
47 36 40 Ar
48 37 39 1
49 39 40 2
50 39 41 Ar
51 41 42 2
52 41 43 1
53 42 44 Ar
54 42 45 1
55 43 46 1
56 44 46 Ar
57 44 48 1
58 46 47 Ar
59 47 49 Ar
60 47 56 1
61 48 51 1
62 48 52 2
63 49 50 1
64 49 54 Ar
65 50 51 1
66 50 53 2
67 51 64 1
68 54 55 2
69 54 57 1
70 55 56 1
71 55 58 Ar
72 58 59 1
73 58 63 2
74 59 61 1
75 60 61 2
76 60 62 1
77 60 63 Ar
78 61 100 1
79 64 65 1
80 64 66 1
81 64 67 1
82 68 69 1
83 68 70 1
84 68 77 1
85 71 72 1
86 71 73 1
87 71 74 1
88 74 75 1
89 74 76 1
90 74 82 1
91 77 78 1
92 77 79 1
93 77 80 1
94 80 81 1
95 80 92 1
96 80 96 1
97 82 83 1
98 82 84 1
99 82 88 1
100 84 85 1
101 84 86 1
102 84 87 1
103 88 89 1
104 88 90 1
105 88 91 1
106 92 93 1
107 92 94 1
108 92 95 1
109 96 97 1
110 96 98 1
111 96 99 1
