# pNB-Tz
# Created by GaussView 6.1.1
#

#
#

@<TRIPOS>MOLECULE
Molecule Name
71 81
SMALL
NO_CHARGES


@<TRIPOS>ATOM
1 C1     7.7618    -3.0685    -0.0072 C
2 C2     7.7811    -1.6008    -0.0492 C
3 C3     6.5786    -0.8620     0.0013 C
4 C4     5.3373    -1.5345     0.0894 C
5 C5     5.3092    -3.0075     0.1368 C
6 C6     8.9911    -0.9293    -0.1404 C
7 C7     6.6345     0.5647    -0.0413 C
8 C8     7.8725     1.2384    -0.1336 C
9 C9     9.0638     0.5031    -0.1841 C
10 C10     7.8959     2.7149    -0.1754 C
11 C11     5.4448     2.7714    -0.0358 C
12 C12     5.4305     1.3046     0.0051 C
13 C13     4.2232     0.6358     0.0810 C
14 C14     4.1451    -0.7971     0.1235 C
15 C15     6.7390     4.8425    -0.1542 C
16 H16     7.1944     5.1712    -1.0916 H
17 H17     5.7232     5.2258    -0.0796 H
18 H18     7.3393     5.2080     0.6822 H
19 C19     6.4614    -5.1358     0.1244 C
20 H20     6.0016    -5.4595     1.0615 H
21 H21     5.8633    -5.5044    -0.7123 H
22 H22     7.4767    -5.5213     0.0553 H
23 N23     6.6779     3.3870    -0.1172 N
24 N24     6.5253    -3.6808     0.0813 N
25 O25     8.9276     3.3693    -0.2569 O
26 O26     4.4001     3.4168     0.0012 O
27 O27     8.8012    -3.7209    -0.0485 O
28 O28     4.2747    -3.6595     0.2220 O
29 C29    10.4256     0.9532    -0.2777 C
30 C30     2.7926    -1.2460     0.1867 C
31 S31    10.5700    -1.6539    -0.2157 S
32 S32     2.6506     1.3712     0.1223 S
33 C33    11.3043    -0.0801    -0.3026 C
34 C34     1.8912    -0.2146     0.1864 C
35 H35    12.3852    -0.0091    -0.3690 H
36 H36    10.7119     1.9939    -0.3229 H
37 H37     2.5125    -2.2888     0.2233 H
38 C38     0.4565    -0.3348     0.2109 C
39 C39    -0.2994    -1.4921     0.1932 C
40 S40    -0.6147     1.0338     0.2409 S
41 H41     0.1190    -2.4924     0.1690 H
42 C42    -1.9719    -0.0526     0.2252 C
43 N43    -1.6421    -1.3266     0.2008 N
44 C44    -3.3348     0.4055     0.2213 C
45 C45    -3.8300     1.6837     0.2852 C
46 S46    -4.6114    -0.7639     0.0943 S
47 C47    -5.2474     1.7419     0.2309 C
48 H48    -3.2152     2.5725     0.3710 H
49 C49    -5.8182     0.4787     0.1266 C
50 C50    -7.2024     0.1510     0.0408 C
51 C51    -5.8823     3.0688     0.3433 C
52 C52    -8.2592     1.0190    -0.1956 C
53 C53    -8.2584     2.4829    -0.3674 C
54 N54    -7.2390     3.3087     0.1216 N
55 O55    -5.1635     4.0245     0.6214 O
56 O56    -9.2482     3.0073    -0.8647 O
57 C57    -9.5007     0.3371    -0.3013 C
58 C58    -9.3904    -1.0191    -0.1311 C
59 S59    -7.7447    -1.4919     0.1491 S
60 H60   -10.4348     0.8544    -0.4883 H
61 C61   -10.4134    -2.0371    -0.1465 C
62 S62   -12.0975    -1.6820    -0.4110 S
63 C63   -11.2991    -4.0580    -0.0314 C
64 C64   -12.4499    -3.3583    -0.2654 C
65 H65   -11.2439    -5.1330     0.1004 H
66 H66   -13.4637    -3.7294    -0.3578 H
67 N67   -10.1574    -3.3108     0.0341 N
68 C68    -7.6129     4.7225     0.2355 C
69 H69    -7.3370     5.2712    -0.6708 H
70 H70    -8.6889     4.7866     0.3812 H
71 H71    -7.0873     5.1528     1.0863 H
@<TRIPOS>BOND
1 1 2 1
2 1 24 1
3 1 27 2
4 2 3 Ar
5 2 6 Ar
6 3 4 Ar
7 3 7 Ar
8 4 5 1
9 4 14 Ar
10 5 24 1
11 5 28 2
12 6 9 Ar
13 6 31 1
14 7 8 Ar
15 7 12 Ar
16 8 9 Ar
17 8 10 1
18 9 29 Ar
19 10 23 1
20 10 25 2
21 11 12 1
22 11 23 Ar
23 11 26 2
24 12 13 2
25 13 14 Ar
26 13 32 1
27 14 30 Ar
28 15 16 1
29 15 17 1
30 15 18 1
31 15 23 1
32 19 20 1
33 19 21 1
34 19 22 1
35 19 24 1
36 29 33 2
37 29 36 1
38 30 34 2
39 30 37 1
40 31 33 1
41 32 34 1
42 33 35 1
43 34 38 Ar
44 38 39 2
45 38 40 1
46 39 41 1
47 39 43 Ar
48 40 42 1
49 42 43 2
50 42 44 Ar
51 44 45 2
52 44 46 1
53 45 47 Ar
54 45 48 1
55 46 49 1
56 47 49 Ar
57 47 51 1
58 49 50 Ar
59 50 52 Ar
60 50 59 1
61 51 54 1
62 51 55 2
63 52 53 1
64 52 57 Ar
65 53 54 1
66 53 56 2
67 54 68 1
68 57 58 2
69 57 60 1
70 58 59 1
71 58 61 Ar
72 61 62 1
73 61 67 2
74 62 64 1
75 63 64 2
76 63 65 1
77 63 67 Ar
78 64 66 1
79 68 69 1
80 68 70 1
81 68 71 1
