# pNB
# Created by GaussView 6.1.1
#

#
#

@<TRIPOS>MOLECULE
Molecule Name
59 67
SMALL
NO_CHARGES


@<TRIPOS>ATOM
1 C1    -4.6589    -2.9310    -0.0326 C
2 C2    -4.7571    -1.4648    -0.0175 C
3 C3    -3.5937    -0.6628    -0.0075 C
4 C4    -2.3134    -1.2666    -0.0121 C
5 C5    -2.1990    -2.7376    -0.0272 C
6 C6    -6.0065    -0.8602    -0.0130 C
7 C7    -3.7270     0.7614     0.0072 C
8 C8    -5.0044     1.3663     0.0117 C
9 C9    -6.1562     0.5669     0.0017 C
10 C10    -5.1141     2.8408     0.0270 C
11 C11    -2.6550     3.0300     0.0327 C
12 C12    -2.5612     1.5645     0.0175 C
13 C13    -1.3143     0.9630     0.0131 C
14 C14    -1.1629    -0.4649    -0.0020 C
15 C15    -4.0686     5.0280     0.0518 C
16 H16    -4.6250     5.3357     0.9402 H
17 H17    -3.0688     5.4584     0.0579 H
18 H18    -4.6222     5.3545    -0.8317 H
19 C19    -3.2390    -4.9256    -0.0511 C
20 H20    -2.6825    -5.2329    -0.9398 H
21 H21    -2.6845    -5.2510     0.8322 H
22 H22    -4.2381    -5.3577    -0.0567 H
23 N23    -3.9283     3.5766     0.0366 N
24 N24    -3.3820    -3.4747    -0.0364 N
25 O25    -6.1796     3.4396     0.0317 O
26 O26    -1.6506     3.7322     0.0414 O
27 O27    -5.6582    -3.6391    -0.0415 O
28 O28    -1.1298    -3.3335    -0.0319 O
29 C29    -7.5403     0.9470     0.0037 C
30 C30     0.2116    -0.8419    -0.0041 C
31 S31    -7.5432    -1.6698    -0.0236 S
32 S32     0.2147     1.7830     0.0248 S
33 C33    -8.3600    -0.1345    -0.0087 C
34 C34     1.0571     0.2356     0.0094 C
35 H35    -7.8725     1.9750     0.0140 H
36 H36     0.5302    -1.8759    -0.0150 H
37 C37     2.4956     0.2169     0.0122 C
38 C38     3.3657     1.2809     0.0225 C
39 S39     3.3727    -1.2865    -0.0029 S
40 C40     4.7345     0.9075     0.0100 C
41 H41     3.0616     2.3211     0.0347 H
42 C42     4.9017    -0.4714    -0.0011 C
43 C43     6.1239    -1.2088     0.0197 C
44 C44     5.7304     1.9992    -0.0028 C
45 C45     7.4216    -0.7158     0.0364 C
46 C46     7.9258     0.6713    -0.0069 C
47 N47     7.1094     1.8022    -0.1590 N
48 O48     5.3152     3.1475     0.0813 O
49 O49     9.1366     0.8402     0.0583 O
50 C50     8.3921    -1.7608     0.0882 C
51 C51     7.8385    -3.0047     0.1028 C
52 S52     6.1208    -2.9432     0.0622 S
53 C53     7.8658     3.0522    -0.3138 C
54 H54     8.1340     3.4637     0.6641 H
55 H55     8.7776     2.8364    -0.8663 H
56 H56     7.2398     3.7704    -0.8385 H
57 H57     9.4552    -1.5574     0.1087 H
58 H58    -9.4440    -0.1197    -0.0101 H
59 H59     8.3425    -3.9620     0.1348 H
@<TRIPOS>BOND
1 1 2 1
2 1 24 1
3 1 27 2
4 2 3 Ar
5 2 6 Ar
6 3 4 Ar
7 3 7 Ar
8 4 5 1
9 4 14 Ar
10 5 24 1
11 5 28 2
12 6 9 Ar
13 6 31 1
14 7 8 Ar
15 7 12 Ar
16 8 9 Ar
17 8 10 1
18 9 29 Ar
19 10 23 1
20 10 25 2
21 11 12 1
22 11 23 1
23 11 26 2
24 12 13 2
25 13 14 Ar
26 13 32 1
27 14 30 Ar
28 15 16 1
29 15 17 1
30 15 18 1
31 15 23 1
32 19 20 1
33 19 21 1
34 19 22 1
35 19 24 1
36 29 33 2
37 29 35 1
38 30 34 2
39 30 36 1
40 31 33 1
41 32 34 1
42 33 58 1
43 34 37 Ar
44 37 38 2
45 37 39 1
46 38 40 Ar
47 38 41 1
48 39 42 1
49 40 42 Ar
50 40 44 1
51 42 43 Ar
52 43 45 Ar
53 43 52 1
54 44 47 1
55 44 48 2
56 45 46 1
57 45 50 Ar
58 46 47 1
59 46 49 2
60 47 53 1
61 50 51 2
62 50 57 1
63 51 52 1
64 51 59 1
65 53 54 1
66 53 55 1
67 53 56 1
