# N2200 PBC
# Created by GaussView 6.1.1
#

#
#

@<TRIPOS>MOLECULE
Molecule Name
74 79
SMALL
NO_CHARGES


@<TRIPOS>ATOM
1 C1     3.3105     2.4921     0.3142 C
2 C2     2.1538     1.6958     0.2206 C
3 C3     2.2346     0.2953     0.3822 C
4 C4     3.5372    -0.3589     0.6496 C
5 C5     3.2338     3.8646     0.1380 C
6 C6     0.8886     2.2778    -0.0549 C
7 C7     0.8497     3.6797    -0.2484 C
8 C8     1.9977     4.4520    -0.1451 C
9 C9    -0.4162     4.3534    -0.5829 C
10 C10    -1.5424     2.1365    -0.5622 C
11 C11    -0.2868     1.4742    -0.1361 C
12 C12    -0.1978     0.0791     0.0983 C
13 C13     1.1005    -0.4699     0.3170 C
14 H14     1.2088    -1.5360     0.4928 H
15 C15    -1.2943    -0.8747     0.1809 C
16 C16    -2.5611    -0.7424     0.7183 C
17 S17    -1.0155    -2.5235    -0.3210 S
18 C18    -3.2855    -1.9442     0.7206 C
19 H19    -2.9456     0.1944     1.0931 H
20 C20    -2.5965    -3.0298     0.1726 C
21 C21    -3.0812    -4.3643    -0.0064 C
22 C22    -2.3831    -5.4495    -0.5303 C
23 S23    -4.6979    -4.8598     0.4218 S
24 C24    -3.1388    -6.6488    -0.5823 C
25 C25    -4.4073    -6.4666    -0.0975 C
26 H26    -2.7695    -7.5962    -0.9556 H
27 C27    -2.7565     4.1584    -1.2128 C
28 H28    -2.4895     5.0279    -1.8151 H
29 H29    -3.3073     3.4379    -1.8179 H
30 C30     5.9356    -0.1425     1.0648 C
31 H31     6.5267     0.5736     1.6372 H
32 H32     5.7443    -1.0335     1.6645 H
33 N33    -1.5143     3.5246    -0.7725 N
34 N34     4.6471     0.4790     0.7625 N
35 O35    -0.5082     5.5653    -0.7126 O
36 O36    -2.5913     1.5428    -0.7612 O
37 O37     3.6496    -1.5675     0.7707 O
38 H38     1.9070     5.5230    -0.2981 H
39 C39     4.6235     1.8668     0.5943 C
40 O40     5.6503     2.5197     0.6779 O
41 C41     6.6799    -0.5261    -0.2050 C
42 H42     6.0771    -1.2359    -0.7948 H
43 H43     6.8628     0.3706    -0.8191 H
44 C44    -3.6062     4.5983    -0.0307 C
45 H45    -3.8500     3.7293     0.6030 H
46 H46    -3.0509     5.3289     0.5791 H
47 O47     7.8930    -1.1133     0.1888 O
48 O48    -4.7769     5.1739    -0.5507 O
49 C49     8.6941    -1.5108    -0.9036 C
50 H50     8.1416    -2.2352    -1.5256 H
51 H51     8.9192    -0.6361    -1.5369 H
52 C52     9.9683    -2.1267    -0.3709 C
53 H53    10.6119    -2.4451    -1.1984 H
54 H54    10.5198    -1.4038     0.2389 H
55 H55     9.7438    -3.0001     0.2499 H
56 C56    -5.6435     5.6631     0.4498 C
57 H57    -5.9339     4.8404     1.1256 H
58 H58    -5.1198     6.4196     1.0582 H
59 C59    -6.8622     6.2627    -0.2151 C
60 H60    -7.5549     6.6518     0.5394 H
61 H61    -6.5734     7.0851    -0.8775 H
62 H62    -7.3863     5.5089    -0.8115 H
63 O63    -4.5415    -2.1309     1.1822 O
64 O64    -1.1050    -5.2804    -0.9295 O
65 C65    -5.2453    -0.9856     1.6246 C
66 H66    -5.3125    -0.2346     0.8280 H
67 H67    -6.2450    -1.3316     1.8908 H
68 H68    -4.7644    -0.5467     2.5080 H
69 C69    -0.4197    -6.4107    -1.4330 C
70 H70    -0.3569    -7.2019    -0.6756 H
71 H71    -0.9095    -6.7976    -2.3353 H
72 H72     0.5845    -6.0663    -1.6830 H
73 H73     4.1389     4.4585     0.2157 H
74 H74    -5.1914    -7.2084    -0.0167 H
@<TRIPOS>BOND
1 1 2 Ar
2 1 5 2
3 1 39 1
4 2 3 Ar
5 2 6 Ar
6 3 4 1
7 3 13 2
8 4 34 1
9 4 37 2
10 5 8 Ar
11 5 73 1
12 6 7 Ar
13 6 11 Ar
14 7 8 Ar
15 7 9 1
16 8 38 1
17 9 33 1
18 9 35 2
19 10 11 1
20 10 33 1
21 10 36 2
22 11 12 Ar
23 12 13 Ar
24 12 15 1
25 13 14 1
26 15 16 2
27 15 17 1
28 16 18 Ar
29 16 19 1
30 17 20 1
31 18 20 Ar
32 18 63 1
33 20 21 Ar
34 21 22 Ar
35 21 23 1
36 22 24 Ar
37 22 64 1
38 23 25 1
39 24 25 2
40 24 26 1
41 25 74 1
42 27 28 1
43 27 29 1
44 27 33 1
45 27 44 1
46 30 31 1
47 30 32 1
48 30 34 1
49 30 41 1
50 34 39 1
51 39 40 2
52 41 42 1
53 41 43 1
54 41 47 1
55 44 45 1
56 44 46 1
57 44 48 1
58 47 49 1
59 48 56 1
60 49 50 1
61 49 51 1
62 49 52 1
63 52 53 1
64 52 54 1
65 52 55 1
66 56 57 1
67 56 58 1
68 56 59 1
69 59 60 1
70 59 61 1
71 59 62 1
72 63 65 1
73 64 69 1
74 65 66 1
75 65 67 1
76 65 68 1
77 69 70 1
78 69 71 1
79 69 72 1
