# N2200 PBC
# Created by GaussView 6.1.1
#

#
#

@<TRIPOS>MOLECULE
Molecule Name
80 85
SMALL
NO_CHARGES


@<TRIPOS>ATOM
1 C1    -2.8242    -2.8033    -0.9170 C
2 C2    -1.8598    -1.7805    -0.8141 C
3 C3    -2.2498    -0.4279    -0.7099 C
4 C4    -3.6850    -0.0605    -0.7260 C
5 C5    -2.4304    -4.1278    -1.0013 C
6 C6    -0.4778    -2.1008    -0.8174 C
7 C7    -0.1044    -3.4621    -0.9075 C
8 C8    -1.0667    -4.4543    -0.9883 C
9 C9     1.3241    -3.8428    -0.8979 C
10 C10     1.9158    -1.4314    -0.9754 C
11 C11     0.4962    -1.0760    -0.7168 C
12 C12     0.0847     0.2481    -0.5030 C
13 C13    -1.2985     0.5523    -0.5450 C
14 H14    -1.6330     1.5760    -0.3999 H
15 C15     1.0015     1.3274    -0.1460 C
16 S16     0.8333     2.9173    -0.8264 S
17 C17     2.6036     2.3808     0.9002 C
18 C18     2.1623     3.4626     0.1388 C
19 C19     2.6873     4.7915     0.1094 C
20 C20     2.2351     5.8709    -0.6386 C
21 S21     4.0539     5.3299     1.0404 S
22 C22     3.8809     6.8964     0.3520 C
23 C23     3.6502    -3.1498    -1.1277 C
24 H24     4.1166    -2.3922    -1.7587 H
25 H25     3.6991    -4.1247    -1.6144 H
26 C26    -6.0189    -0.7589    -0.9135 C
27 H27    -6.1052     0.2255    -1.3757 H
28 H28    -6.5243    -1.5058    -1.5273 H
29 N29     2.2405    -2.7981    -0.9656 N
30 N30    -4.5995    -1.1069    -0.8618 N
31 O31     1.6912    -5.0066    -0.8647 O
32 O32     2.7749    -0.6087    -1.2313 O
33 O33    -4.0638     1.0945    -0.6296 O
34 H34    -0.7388    -5.4880    -1.0414 H
35 C35    -4.2659    -2.4631    -0.9318 C
36 O36    -5.1349    -3.3149    -1.0067 O
37 C37    -6.6348    -0.7320     0.4770 C
38 H38    -6.5362    -1.7210     0.9524 H
39 H39    -6.1179     0.0115     1.1046 H
40 C40     4.3543    -3.2090     0.2189 C
41 H41     4.2723    -2.2357     0.7304 H
42 H42     3.8860    -3.9762     0.8561 H
43 O43     3.6223     2.5254     1.7598 O
44 O44     1.1829     5.7443    -1.4594 O
45 C45     4.0886     1.3427     2.4016 C
46 H46     4.4030     0.6026     1.6589 H
47 H47     4.9368     1.6585     3.0099 H
48 H48     3.3058     0.9119     3.0331 H
49 C49     0.7827     6.9055    -2.1809 C
50 H50     0.5001     7.7089    -1.4941 H
51 H51     1.5911     7.2542    -2.8304 H
52 H52    -0.0762     6.5931    -2.7757 H
53 N53     1.9610     1.2136     0.7429 N
54 N54     2.9013     7.0410    -0.5009 N
55 O55    -7.9888    -0.3915     0.3208 O
56 O56     5.7009    -3.5246    -0.0279 O
57 C57     6.4687    -3.6143     1.1485 C
58 H58     6.0689    -4.3917     1.8186 H
59 H59     6.4593    -2.6576     1.6952 H
60 C60     7.8878    -3.9603     0.7478 C
61 H61     7.9002    -4.9229     0.2113 H
62 H62     8.2813    -3.1890     0.0658 H
63 C63    -8.6861    -0.3353     1.5433 C
64 H64    -8.6536    -1.3094     2.0564 H
65 H65    -8.2403     0.4171     2.2129 H
66 C66   -10.1221     0.0363     1.2371 C
67 H67   -10.5673    -0.7162     0.5659 H
68 H68   -10.1538     1.0097     0.7208 H
69 O69   -10.8169     0.0932     2.4576 O
70 O70     8.6568    -4.0308     1.9225 O
71 C71   -12.1701     0.4307     2.2936 C
72 H72   -12.6968    -0.3112     1.6729 H
73 H73   -12.6221     0.4497     3.2881 H
74 H74   -12.2832     1.4224     1.8278 H
75 C75     9.9992    -4.3577     1.6703 C
76 H76    10.4826    -3.6038     1.0291 H
77 H77    10.5120    -4.3882     2.6346 H
78 H78    10.0884    -5.3418     1.1839 H
79 H79    -3.1917    -4.8981    -1.0745 H
80 H80     4.5535     7.7012     0.6256 H
@<TRIPOS>BOND
1 1 2 Ar
2 1 5 2
3 1 35 1
4 2 3 Ar
5 2 6 Ar
6 3 4 1
7 3 13 2
8 4 30 1
9 4 33 2
10 5 8 Ar
11 5 79 1
12 6 7 Ar
13 6 11 Ar
14 7 8 2
15 7 9 1
16 8 34 1
17 9 29 1
18 9 31 2
19 10 11 1
20 10 29 1
21 10 32 2
22 11 12 Ar
23 12 13 Ar
24 12 15 1
25 13 14 1
26 15 16 1
27 15 53 2
28 16 18 1
29 17 18 Ar
30 17 43 Ar
31 17 53 Ar
32 18 19 Ar
33 19 20 Ar
34 19 21 1
35 20 44 Ar
36 20 54 Ar
37 21 22 1
38 22 54 2
39 22 80 1
40 23 24 1
41 23 25 1
42 23 29 1
43 23 40 1
44 26 27 1
45 26 28 1
46 26 30 1
47 26 37 1
48 30 35 1
49 35 36 2
50 37 38 1
51 37 39 1
52 37 55 1
53 40 41 1
54 40 42 1
55 40 56 1
56 43 45 1
57 44 49 1
58 45 46 1
59 45 47 1
60 45 48 1
61 49 50 1
62 49 51 1
63 49 52 1
64 55 63 1
65 56 57 1
66 57 58 1
67 57 59 1
68 57 60 1
69 60 61 1
70 60 62 1
71 60 70 1
72 63 64 1
73 63 65 1
74 63 66 1
75 66 67 1
76 66 68 1
77 66 69 1
78 69 71 1
79 70 75 1
80 71 72 1
81 71 73 1
82 71 74 1
83 75 76 1
84 75 77 1
85 75 78 1
