# N2200 PBC
# Created by GaussView 6.1.1
#

#
#

@<TRIPOS>MOLECULE
Molecule Name
72 77
SMALL
NO_CHARGES


@<TRIPOS>ATOM
1 C1    -3.7067    -1.9884    -0.5603 C
2 C2    -2.4791    -1.2978    -0.5048 C
3 C3    -2.4465     0.1105    -0.4190 C
4 C4    -3.7078     0.8880    -0.4034 C
5 C5    -3.7270    -3.3708    -0.6282 C
6 C6    -1.2556    -2.0149    -0.5390 C
7 C7    -1.3064    -3.4266    -0.6111 C
8 C8    -2.5221    -4.0883    -0.6457 C
9 C9    -0.0559    -4.2150    -0.6325 C
10 C10     1.2235    -2.0909    -0.7732 C
11 C11    -0.0182    -1.3254    -0.4867 C
12 C12    -0.0110     0.0639    -0.2932 C
13 C13    -1.2420     0.7653    -0.3031 C
14 H14    -1.2520     1.8441    -0.1726 H
15 C15     1.1970     0.8279     0.0092 C
16 S16     1.4914     2.3764    -0.7211 S
17 C17     3.0720     1.3788     0.9843 C
18 C18     2.9520     2.5226     0.1962 C
19 C19     3.8504     3.6309     0.1088 C
20 C20     3.7203     4.7751    -0.6675 C
21 S21     5.3438     3.7582     0.9905 S
22 C22     5.6283     5.2844     0.2502 C
23 C23     2.3620    -4.2512    -0.9379 C
24 H24     3.0198    -3.6668    -1.5821 H
25 H25     2.1045    -5.1938    -1.4228 H
26 C26    -6.1487     0.9143    -0.5138 C
27 H27    -5.9532     1.8732    -0.9957 H
28 H28    -6.8725     0.3438    -1.0973 H
29 N29     1.1272    -3.4918    -0.7453 N
30 N30    -4.8957     0.1600    -0.4925 N
31 O31    -0.0509    -5.4349    -0.5860 O
32 O32     2.2802    -1.5633    -1.0653 O
33 O33    -3.7222     2.1045    -0.3204 O
34 H34    -2.5178    -5.1732    -0.6870 H
35 C35    -4.9821    -1.2347    -0.5428 C
36 O36    -6.0666    -1.7910    -0.5758 O
37 C37    -6.6855     1.1435     0.8909 C
38 H38    -6.8706     0.1760     1.3855 H
39 H39    -5.9490     1.7055     1.4883 H
40 C40     3.0471    -4.5271     0.3916 C
41 H41     3.2760    -3.5763     0.9020 H
42 H42     2.3811    -5.1168     1.0424 H
43 O43     4.2259    -5.2366     0.1134 O
44 O44    -7.8787     1.8712     0.7616 O
45 C45    -8.4912     2.1533     2.0024 C
46 H46    -8.7132     1.2102     2.5296 H
47 H47    -7.7972     2.7308     2.6361 H
48 C48    -9.7601     2.9355     1.7491 C
49 H49   -10.4514     2.3575     1.1273 H
50 H50   -10.2582     3.1691     2.6965 H
51 H51    -9.5371     3.8752     1.2336 H
52 C52     4.9510    -5.5811     1.2743 C
53 H53     4.3198    -6.1953     1.9384 H
54 H54     5.2206    -4.6662     1.8295 H
55 C55     6.1920    -6.3409     0.8631 C
56 H56     6.8217    -5.7268     0.2113 H
57 H57     6.7763    -6.6219     1.7463 H
58 H58     5.9227    -7.2531     0.3211 H
59 O59     4.1134     1.2323     1.8165 O
60 O60     2.6535     4.9489    -1.4605 O
61 C61     2.6001     6.1546    -2.2170 C
62 H62     2.5942     7.0260    -1.5554 H
63 H63     3.4556     6.2230    -2.8955 H
64 H64     1.6691     6.0991    -2.7820 H
65 C65     4.2247    -0.0209     2.4833 C
66 H66     4.2783    -0.8379     1.7568 H
67 H67     5.1481     0.0395     3.0606 H
68 H68     3.3700    -0.1825     3.1470 H
69 N69     2.1047     0.4545     0.8808 N
70 N70     4.7113     5.6935    -0.5860 N
71 H71    -4.6847    -3.8805    -0.6653 H
72 H72     6.5199     5.8563     0.4802 H
@<TRIPOS>BOND
1 1 2 Ar
2 1 5 2
3 1 35 1
4 2 3 Ar
5 2 6 Ar
6 3 4 1
7 3 13 2
8 4 30 1
9 4 33 2
10 5 8 Ar
11 5 71 1
12 6 7 Ar
13 6 11 Ar
14 7 8 2
15 7 9 1
16 8 34 1
17 9 29 1
18 9 31 2
19 10 11 1
20 10 29 1
21 10 32 2
22 11 12 Ar
23 12 13 Ar
24 12 15 1
25 13 14 1
26 15 16 1
27 15 69 2
28 16 18 1
29 17 18 Ar
30 17 59 Ar
31 17 69 Ar
32 18 19 Ar
33 19 20 Ar
34 19 21 1
35 20 60 Ar
36 20 70 Ar
37 21 22 1
38 22 70 2
39 22 72 1
40 23 24 1
41 23 25 1
42 23 29 1
43 23 40 1
44 26 27 1
45 26 28 1
46 26 30 1
47 26 37 1
48 30 35 1
49 35 36 2
50 37 38 1
51 37 39 1
52 37 44 1
53 40 41 1
54 40 42 1
55 40 43 1
56 43 52 1
57 44 45 1
58 45 46 1
59 45 47 1
60 45 48 1
61 48 49 1
62 48 50 1
63 48 51 1
64 52 53 1
65 52 54 1
66 52 55 1
67 55 56 1
68 55 57 1
69 55 58 1
70 59 65 1
71 60 61 1
72 61 62 1
73 61 63 1
74 61 64 1
75 65 66 1
76 65 67 1
77 65 68 1
