# N2200 PBC
# Created by GaussView 6.1.1
#

#
#

@<TRIPOS>MOLECULE
Molecule Name
68 73
SMALL
NO_CHARGES


@<TRIPOS>ATOM
1 C1    -5.3250     0.1106     0.2680 C
2 C2    -3.9356    -0.0692     0.1410 C
3 C3    -3.0562     1.0288     0.2740 C
4 C4    -3.5800     2.3918     0.5290 C
5 C5    -6.1892    -0.9638     0.1250 C
6 C6    -3.3885    -1.3494    -0.1365 C
7 C7    -4.3001    -2.4210    -0.2978 C
8 C8    -5.6679    -2.2279    -0.1610 C
9 C9    -3.8202    -3.7728    -0.6337 C
10 C10    -1.5073    -2.8653    -0.7027 C
11 C11    -1.9793    -1.5362    -0.2530 C
12 C12    -1.1059    -0.4399    -0.0354 C
13 C13    -1.7030     0.8367     0.1915 C
14 H14    -1.0694     1.7034     0.3545 H
15 C15     0.3464    -0.4633     0.0240 C
16 C16     1.2169    -1.4364     0.4832 C
17 S17     1.2268     0.9857    -0.3974 S
18 C18     2.5564    -1.0204     0.4857 C
19 H19     0.8893    -2.4143     0.8018 H
20 C20     2.7523     0.2834     0.0183 C
21 C21     3.9958     0.9726    -0.1396 C
22 C22     4.1736     2.2982    -0.5304 C
23 S23     5.5485     0.2291     0.1409 S
24 C24     5.5321     2.7000    -0.5959 C
25 C25     6.3765     1.6759    -0.2554 C
26 H26     5.8708     3.6891    -0.8799 H
27 C27    -1.9276    -5.1814    -1.2678 C
28 H28    -1.4358    -5.0814    -2.2382 H
29 H29    -1.1894    -5.5394    -0.5458 H
30 H30    -2.7658    -5.8731    -1.3300 H
31 C31    -5.5332     3.8245     0.9233 C
32 H32    -4.7126     4.5365     0.9879 H
33 H33    -6.2177     4.1002     0.1172 H
34 H34    -6.0966     3.8010     1.8592 H
35 N35    -2.4526    -3.8895    -0.8433 N
36 N36    -4.9628     2.5093     0.6589 N
37 O37    -4.5720    -4.7306    -0.7441 O
38 O38    -0.3453    -3.1261    -0.9794 O
39 O39    -2.8479     3.3652     0.6201 O
40 H40    -6.3184    -3.0875    -0.2898 H
41 C41    -5.8723     1.4558     0.5497 C
42 O42    -7.0668     1.6670     0.6812 O
43 O43     3.6269    -1.7379     0.8885 O
44 O44     3.0910     3.0499    -0.8108 O
45 C45     3.4161    -3.1056     1.2030 C
46 H46     2.9474    -3.6170     0.3521 H
47 H47     2.7569    -3.1872     2.0792 H
48 C48     3.2771     4.4369    -1.0479 C
49 H49     3.8557     4.8828    -0.2284 H
50 H50     3.8169     4.5815    -1.9945 H
51 C51     4.7485    -3.7338     1.5203 C
52 H52     5.2840    -3.1122     2.2571 H
53 H53     4.5700    -4.7227     1.9782 H
54 C54     1.9182     5.0866    -1.1237 C
55 H55     1.2721     4.5078    -1.8040 H
56 H56     2.0317     6.1003    -1.5472 H
57 O57     5.4958    -3.8636     0.3409 O
58 O58     1.3686     5.1440     0.1633 O
59 C59     6.7823    -4.3778     0.5700 C
60 H60     6.7413    -5.3822     1.0217 H
61 H61     7.2805    -4.4436    -0.3997 H
62 H62     7.3661    -3.7182     1.2311 H
63 C63     0.0318     5.5870     0.1687 C
64 H64    -0.6209     4.9045    -0.3941 H
65 H65    -0.2970     5.6031     1.2094 H
66 H66    -0.0549     6.6007    -0.2544 H
67 H67    -7.2571    -0.8011     0.2301 H
68 H68     7.4582     1.7037    -0.2185 H
@<TRIPOS>BOND
1 1 2 Ar
2 1 5 Ar
3 1 41 1
4 2 3 Ar
5 2 6 Ar
6 3 4 1
7 3 13 2
8 4 36 1
9 4 39 2
10 5 8 Ar
11 5 67 1
12 6 7 Ar
13 6 11 Ar
14 7 8 Ar
15 7 9 1
16 8 40 1
17 9 35 1
18 9 37 2
19 10 11 1
20 10 35 1
21 10 38 2
22 11 12 Ar
23 12 13 Ar
24 12 15 1
25 13 14 1
26 15 16 2
27 15 17 1
28 16 18 Ar
29 16 19 1
30 17 20 1
31 18 20 Ar
32 18 43 1
33 20 21 Ar
34 21 22 Ar
35 21 23 1
36 22 24 Ar
37 22 44 1
38 23 25 1
39 24 25 2
40 24 26 1
41 25 68 1
42 27 28 1
43 27 29 1
44 27 30 1
45 27 35 1
46 31 32 1
47 31 33 1
48 31 34 1
49 31 36 1
50 36 41 1
51 41 42 2
52 43 45 1
53 44 48 1
54 45 46 1
55 45 47 1
56 45 51 1
57 48 49 1
58 48 50 1
59 48 54 1
60 51 52 1
61 51 53 1
62 51 57 1
63 54 55 1
64 54 56 1
65 54 58 1
66 57 59 1
67 58 63 1
68 59 60 1
69 59 61 1
70 59 62 1
71 63 64 1
72 63 65 1
73 63 66 1
