# PNDIBS
# Created by GaussView 6.1.1
#

#
#

@<TRIPOS>MOLECULE
Molecule Name
46 51
SMALL
NO_CHARGES


@<TRIPOS>ATOM
1 C1    -5.3089    -2.1161    -0.1329 C
2 C2    -4.8386    -0.7125    -0.0864 C
3 C3    -3.4573    -0.4337    -0.0740 C
4 C4    -2.5155    -1.4839    -0.0989 C
5 C5    -2.9600    -2.8993    -0.1364 C
6 C6    -5.7606     0.3184    -0.0508 C
7 C7    -2.9902     0.9050    -0.0242 C
8 C8    -3.9588     1.9361     0.0276 C
9 C9    -5.3130     1.6441     0.0082 C
10 C10    -3.5480     3.3517     0.1159 C
11 C11    -1.1789     2.6044     0.1635 C
12 C12    -1.5952     1.1892    -0.0241 C
13 C13    -0.6685     0.1303    -0.1076 C
14 C14    -1.1731    -1.2007    -0.1103 C
15 H15    -0.4794    -2.0342    -0.1715 H
16 C16     0.7806     0.2592    -0.2377 C
17 C17     1.5191     1.0729    -1.0632 C
18 C18     2.9121     0.8531    -1.0620 C
19 H19     1.0551     1.8259    -1.6894 H
20 C20     3.3636    -0.1429    -0.2213 C
21 H21     3.5883     1.4156    -1.6999 H
22 C22     4.7160    -0.5801     0.0049 C
23 C23     5.1519    -1.7869     0.5035 C
24 C24     6.5608    -1.9385     0.5978 C
25 H25     4.4592    -2.5775     0.7796 H
26 C26     7.2844    -0.8597     0.1735 C
27 H27     7.0277    -2.8462     0.9676 H
28 C28    -1.7180     4.9551     0.3625 C
29 H29    -1.1770     5.0548     1.3065 H
30 H30    -1.0377     5.2164    -0.4515 H
31 H31    -2.5935     5.6017     0.3519 H
32 C32    -4.8287    -4.4893    -0.1947 C
33 H33    -3.9652    -5.1518    -0.2065 H
34 H34    -5.4508    -4.6853     0.6820 H
35 H35    -5.4382    -4.6367    -1.0895 H
36 N36    -2.1803     3.5814     0.1992 N
37 N37    -4.3377    -3.1167    -0.1536 N
38 O38    -4.3558     4.2672     0.1316 O
39 O39    -0.0218     2.9617     0.3051 O
40 O40    -2.1681    -3.8262    -0.1516 O
41 Se41     1.9223    -0.9198     0.6803 Se
42 Se42     6.1825     0.5193    -0.3950 Se
43 H43    -6.0153     2.4712     0.0449 H
44 O44    -6.4922    -2.4111    -0.1512 O
45 H45    -6.8195     0.0800    -0.0631 H
46 H46     8.3616    -0.7584     0.1489 H
@<TRIPOS>BOND
1 1 2 1
2 1 37 1
3 1 44 2
4 2 3 Ar
5 2 6 2
6 3 4 Ar
7 3 7 Ar
8 4 5 1
9 4 14 2
10 5 37 1
11 5 40 2
12 6 9 Ar
13 6 45 1
14 7 8 Ar
15 7 12 Ar
16 8 9 2
17 8 10 1
18 9 43 1
19 10 36 1
20 10 38 2
21 11 12 1
22 11 36 1
23 11 39 2
24 12 13 Ar
25 13 14 Ar
26 13 16 1
27 14 15 1
28 16 17 2
29 16 41 1
30 17 18 Ar
31 17 19 1
32 18 20 2
33 18 21 1
34 20 22 Ar
35 20 41 1
36 22 23 2
37 22 42 1
38 23 24 Ar
39 23 25 1
40 24 26 2
41 24 27 1
42 26 42 1
43 26 46 1
44 28 29 1
45 28 30 1
46 28 31 1
47 28 36 1
48 32 33 1
49 32 34 1
50 32 35 1
51 32 37 1
