# N2200 PBC
# Created by GaussView 6.1.1
#

#
#

@<TRIPOS>MOLECULE
Molecule Name
88 93
SMALL
NO_CHARGES


@<TRIPOS>ATOM
1 C1    -3.4978    -3.2043     0.3949 C
2 C2    -2.3815    -2.3557     0.2783 C
3 C3    -2.5130    -0.9665     0.4959 C
4 C4    -3.8284    -0.3784     0.8415 C
5 C5    -3.3721    -4.5653     0.1642 C
6 C6    -1.1071    -2.8708    -0.0765 C
7 C7    -1.0190    -4.2618    -0.3247 C
8 C8    -2.1275    -5.0870    -0.1976 C
9 C9     0.2559    -4.8674    -0.7439 C
10 C10     1.2875    -2.6056    -0.6912 C
11 C11     0.0288    -2.0143    -0.1809 C
12 C12    -0.1062    -0.6332     0.1126 C
13 C13    -1.4158    -0.1517     0.4114 C
14 H14    -1.5619     0.9009     0.6338 H
15 C15     0.9485     0.3665     0.1822 C
16 C16     2.2529     0.2738     0.6326 C
17 S17     0.5587     2.0252    -0.2038 S
18 C18     2.9162     1.5101     0.6615 C
19 H19     2.7063    -0.6604     0.9281 H
20 C20     2.1411     2.5864     0.2190 C
21 C21     2.5466     3.9519     0.0844 C
22 C22     1.7515     5.0307    -0.2957 C
23 S23     4.1761     4.5002     0.3801 S
24 C24     2.4431     6.2676    -0.3418 C
25 C25     3.7611     6.1188     0.0024 C
26 H26     1.9954     7.2158    -0.6137 H
27 C27     2.5515    -4.5468    -1.4784 C
28 H28     3.0396    -3.7817    -2.0826 H
29 H29     2.2918    -5.4057    -2.0987 H
30 C30    -6.1938    -0.7136     1.3554 C
31 H31    -6.0136     0.1690     1.9707 H
32 H32    -6.7244    -1.4708     1.9343 H
33 N33     1.3072    -3.9850    -0.9544 N
34 N34    -4.8951    -1.2671     0.9752 N
35 O35     0.3922    -6.0689    -0.9233 O
36 O36     2.3002    -1.9604    -0.9161 O
37 O37    -3.9867     0.8204     1.0062 O
38 H38    -1.9989    -6.1468    -0.3952 H
39 C39    -4.8208    -2.6467     0.7577 C
40 O40    -5.8145    -3.3456     0.8658 O
41 C41     3.4783    -4.9895    -0.3568 C
42 H42     3.7193    -4.1324     0.2939 H
43 H43     2.9852    -5.7628     0.2540 H
44 C44    -7.0148    -0.3312     0.1334 C
45 H45    -7.1897    -1.2196    -0.4949 H
46 H46    -6.4715     0.4181    -0.4656 H
47 O47     4.6427    -5.4978    -0.9552 O
48 O48    -8.2307     0.1937     0.5999 O
49 C49    -9.1040     0.5736    -0.4421 C
50 H50    -9.3217    -0.2988    -1.0811 H
51 H51    -8.6174     1.3339    -1.0765 H
52 C52   -10.3756     1.1204     0.1668 C
53 H53   -11.0746     1.4238    -0.6205 H
54 H54   -10.8619     0.3618     0.7885 H
55 H55   -10.1593     1.9917     0.7934 H
56 C56     5.5816    -5.9772    -0.0175 C
57 H57     5.1246    -6.7745     0.5926 H
58 H58     5.8717    -5.1628     0.6686 H
59 C59     6.7882    -6.5008    -0.7639 C
60 H60     7.2462    -5.7062    -1.3618 H
61 H61     7.5364    -6.8809    -0.0595 H
62 H62     6.5005    -7.3149    -1.4369 H
63 O63     4.1834     1.7394     1.0672 O
64 O64     0.4486     4.8226    -0.5794 O
65 C65     4.9978     0.6094     1.3398 C
66 H66     5.0176    -0.0565     0.4672 H
67 H67     4.5936     0.0608     2.2027 H
68 C68     6.3895     1.0900     1.6612 C
69 H69     6.3389     1.8851     2.4237 H
70 H70     6.9613     0.2476     2.0887 H
71 C71    -0.3491     5.9481    -0.9096 C
72 H72    -0.3364     6.6784    -0.0901 H
73 H73     0.0282     6.4293    -1.8214 H
74 C74    -1.7577     5.4377    -1.1324 C
75 H75    -1.7628     4.6931    -1.9449 H
76 H76    -2.1274     4.9440    -0.2195 H
77 O77    -2.5487     6.5497    -1.4617 O
78 O78     7.0024     1.5596     0.4912 O
79 C79    -3.8950     6.2080    -1.6847 C
80 H80    -4.3467     5.7556    -0.7888 H
81 H81    -4.4254     7.1315    -1.9273 H
82 H82    -3.9945     5.5031    -2.5245 H
83 C83     8.2814     2.0899     0.7260 C
84 H84     8.9612     1.3325     1.1484 H
85 H85     8.6739     2.4229    -0.2374 H
86 H86     8.2395     2.9485     1.4144 H
87 H87    -4.2466    -5.2007     0.2612 H
88 H88     4.5157     6.8934     0.0534 H
@<TRIPOS>BOND
1 1 2 Ar
2 1 5 Ar
3 1 39 1
4 2 3 Ar
5 2 6 Ar
6 3 4 1
7 3 13 2
8 4 34 1
9 4 37 2
10 5 8 Ar
11 5 87 1
12 6 7 Ar
13 6 11 Ar
14 7 8 Ar
15 7 9 1
16 8 38 1
17 9 33 1
18 9 35 2
19 10 11 1
20 10 33 1
21 10 36 2
22 11 12 Ar
23 12 13 Ar
24 12 15 1
25 13 14 1
26 15 16 2
27 15 17 1
28 16 18 Ar
29 16 19 1
30 17 20 1
31 18 20 Ar
32 18 63 1
33 20 21 Ar
34 21 22 Ar
35 21 23 1
36 22 24 Ar
37 22 64 1
38 23 25 1
39 24 25 2
40 24 26 1
41 25 88 1
42 27 28 1
43 27 29 1
44 27 33 1
45 27 41 1
46 30 31 1
47 30 32 1
48 30 34 1
49 30 44 1
50 34 39 1
51 39 40 2
52 41 42 1
53 41 43 1
54 41 47 1
55 44 45 1
56 44 46 1
57 44 48 1
58 47 56 1
59 48 49 1
60 49 50 1
61 49 51 1
62 49 52 1
63 52 53 1
64 52 54 1
65 52 55 1
66 56 57 1
67 56 58 1
68 56 59 1
69 59 60 1
70 59 61 1
71 59 62 1
72 63 65 1
73 64 71 1
74 65 66 1
75 65 67 1
76 65 68 1
77 68 69 1
78 68 70 1
79 68 78 1
80 71 72 1
81 71 73 1
82 71 74 1
83 74 75 1
84 74 76 1
85 74 77 1
86 77 79 1
87 78 83 1
88 79 80 1
89 79 81 1
90 79 82 1
91 83 84 1
92 83 85 1
93 83 86 1
