# N2200 PBC
# Created by GaussView 6.1.1
#

#
#

@<TRIPOS>MOLECULE
Molecule Name
54 59
SMALL
NO_CHARGES


@<TRIPOS>ATOM
1 C1     4.6389    -0.9925     0.1325 C
2 C2     3.2899    -0.5942     0.0846 C
3 C3     2.2571    -1.5495     0.2099 C
4 C4     2.5724    -2.9872     0.3915 C
5 C5     5.6527    -0.0581    -0.0051 C
6 C6     2.9398     0.7685    -0.1042 C
7 C7     3.9995     1.6945    -0.2615 C
8 C8     5.3242     1.2857    -0.2051 C
9 C9     3.7218     3.1207    -0.5078 C
10 C10     1.2937     2.5890    -0.4852 C
11 C11     1.5739     1.1755    -0.1406 C
12 C12     0.5519     0.2141     0.0539 C
13 C13     0.9470    -1.1493     0.1912 C
14 H14     0.1905    -1.9144     0.3379 H
15 C15    -0.8774     0.4618     0.1730 C
16 C16    -1.5590     1.5015     0.7768 C
17 S17    -1.9947    -0.7598    -0.3801 S
18 C18    -2.9498     1.3131     0.7881 C
19 H19    -1.0637     2.3669     1.1915 H
20 C20    -3.3724     0.1272     0.1814 C
21 C21    -4.7190    -0.3216    -0.0029 C
22 C22    -5.1355    -1.5149    -0.5871 C
23 S23    -6.1115     0.6027     0.4967 S
24 C24    -6.5444    -1.6745    -0.6282 C
25 C25    -7.1898    -0.6002    -0.0745 C
26 H26    -7.0572    -2.5343    -1.0422 H
27 C27     2.0457     4.8409    -0.9570 C
28 H28     1.4902     4.8765    -1.8970 H
29 H29     1.4167     5.2667    -0.1712 H
30 H30     2.9788     5.3954    -1.0397 H
31 C31     4.2927    -4.7227     0.6185 C
32 H32     3.3736    -5.3017     0.6892 H
33 H33     4.8947    -5.0596    -0.2290 H
34 H34     4.8875    -4.8338     1.5284 H
35 N35     2.3806     3.4597    -0.6324 N
36 N36     3.9254    -3.3236     0.4371 N
37 O37     4.6083     3.9551    -0.6162 O
38 O38     0.1740     3.0437    -0.6684 O
39 O39     1.7021    -3.8358     0.4957 O
40 H40     6.0956     2.0397    -0.3276 H
41 C41     4.9816    -2.4197     0.3237 C
42 O42     6.1339    -2.8171     0.3804 O
43 O43    -3.8753     2.1488     1.3085 O
44 O44    -4.2092    -2.3820    -1.0477 O
45 C45    -3.4158     3.3868     1.8173 C
46 H46    -2.8821     3.9542     1.0451 H
47 H47    -4.3072     3.9338     2.1273 H
48 H48    -2.7609     3.2359     2.6848 H
49 C49    -4.6689    -3.5932    -1.6149 C
50 H50    -5.2369    -4.1799    -0.8822 H
51 H51    -5.2892    -3.4025    -2.4996 H
52 H52    -3.7755    -4.1454    -1.9089 H
53 H53     6.6855    -0.3889     0.0367 H
54 H54    -8.2580    -0.4588     0.0294 H
@<TRIPOS>BOND
1 1 2 Ar
2 1 5 2
3 1 41 1
4 2 3 Ar
5 2 6 Ar
6 3 4 1
7 3 13 2
8 4 36 1
9 4 39 2
10 5 8 Ar
11 5 53 1
12 6 7 Ar
13 6 11 Ar
14 7 8 Ar
15 7 9 1
16 8 40 1
17 9 35 1
18 9 37 2
19 10 11 1
20 10 35 1
21 10 38 2
22 11 12 Ar
23 12 13 Ar
24 12 15 1
25 13 14 1
26 15 16 2
27 15 17 1
28 16 18 Ar
29 16 19 1
30 17 20 1
31 18 20 Ar
32 18 43 1
33 20 21 Ar
34 21 22 Ar
35 21 23 1
36 22 24 Ar
37 22 44 1
38 23 25 1
39 24 25 2
40 24 26 1
41 25 54 1
42 27 28 1
43 27 29 1
44 27 30 1
45 27 35 1
46 31 32 1
47 31 33 1
48 31 34 1
49 31 36 1
50 36 41 1
51 41 42 2
52 43 45 1
53 44 49 1
54 45 46 1
55 45 47 1
56 45 48 1
57 49 50 1
58 49 51 1
59 49 52 1
