# PNDTI-BBT-DP
# Created by GaussView 6.1.1
#

#
#

@<TRIPOS>MOLECULE
Molecule Name
50 58
SMALL
NO_CHARGES


@<TRIPOS>ATOM
1 C1    -3.5567    -2.8528    -0.1670 C
2 C2    -3.5989    -1.3866    -0.0787 C
3 C3    -2.4058    -0.6291    -0.0643 C
4 C4    -1.1528    -1.2815    -0.1257 C
5 C5    -1.1016    -2.7542    -0.2153 C
6 C6    -4.8215    -0.7360    -0.0103 C
7 C7    -2.4824     0.7966     0.0187 C
8 C8    -3.7357     1.4477     0.0864 C
9 C9    -4.9169     0.6932     0.0740 C
10 C10    -3.7868     2.9224     0.1689 C
11 C11    -1.3321     3.0219     0.1120 C
12 C12    -1.2883     1.5558     0.0333 C
13 C13    -0.0647     0.9058    -0.0176 C
14 C14     0.0274    -0.5227    -0.0947 C
15 C15    -2.6681     5.0681     0.2513 C
16 H16    -3.1823     5.3612     1.1700 H
17 H17    -1.6566     5.4697     0.2467 H
18 H18    -3.2258     5.4517    -0.6068 H
19 C19    -2.2226    -4.8981    -0.3253 C
20 H20    -1.6933    -5.1817    -1.2383 H
21 H21    -1.6803    -5.2924     0.5379 H
22 H22    -3.2347    -5.2978    -0.3424 H
23 N23    -2.5802     3.6149     0.1748 N
24 N24    -2.3094    -3.4455    -0.2350 N
25 O25    -4.8327     3.5573     0.2301 O
26 O26    -0.3024     3.6907     0.1220 O
27 O27    -4.5875    -3.5201    -0.1813 O
28 O28    -0.0562    -3.3911    -0.2740 O
29 C29    -6.2882     1.1210     0.1326 C
30 C30     1.3841    -0.9550    -0.1161 C
31 S31    -6.3921    -1.4839    -0.0143 S
32 C32    -7.1519     0.0758     0.0943 C
33 C33     2.2916     0.0763    -0.0607 C
34 H34    -8.2356     0.1300     0.1243 H
35 C35     3.7350    -0.0510    -0.0212 C
36 C36     4.6145     1.0536    -0.1484 C
37 C37     4.4028    -1.2931     0.1611 C
38 C38     6.0693     0.9259    -0.1060 C
39 C39     5.8619    -1.4003     0.2024 C
40 C40     6.7070    -0.2997     0.0672 C
41 H41     7.7871    -0.3934     0.0990 H
42 N42     4.2244     2.3298    -0.3249 N
43 N43     6.7016     2.1122    -0.2514 N
44 N44     3.8083    -2.4895     0.3294 N
45 N45     6.2887    -2.6684     0.3909 N
46 S46     5.5579     3.2294    -0.4178 S
47 S47     4.9748    -3.5867     0.5049 S
48 H48    -6.5925     2.1556     0.1994 H
49 H49     1.6665    -1.9935    -0.1655 H
50 S50     1.4988     1.6599    -0.0036 S
@<TRIPOS>BOND
1 1 2 1
2 1 24 1
3 1 27 2
4 2 3 Ar
5 2 6 Ar
6 3 4 Ar
7 3 7 Ar
8 4 5 1
9 4 14 Ar
10 5 24 1
11 5 28 2
12 6 9 Ar
13 6 31 1
14 7 8 Ar
15 7 12 Ar
16 8 9 Ar
17 8 10 1
18 9 29 Ar
19 10 23 1
20 10 25 2
21 11 12 1
22 11 23 1
23 11 26 2
24 12 13 Ar
25 13 14 Ar
26 13 50 1
27 14 30 Ar
28 15 16 1
29 15 17 1
30 15 18 1
31 15 23 1
32 19 20 1
33 19 21 1
34 19 22 1
35 19 24 1
36 29 32 2
37 29 48 1
38 30 33 2
39 30 49 1
40 31 32 1
41 32 34 1
42 33 35 1
43 33 50 1
44 35 36 Ar
45 35 37 Ar
46 36 38 1
47 36 42 Ar
48 37 39 1
49 37 44 Ar
50 38 40 Ar
51 38 43 Ar
52 39 40 Ar
53 39 45 Ar
54 40 41 1
55 42 46 1
56 43 46 1
57 44 47 1
58 45 47 Ar
