# TBDOPV-2T
# Created by GaussView 6.1.1
#

#
#

@<TRIPOS>MOLECULE
Molecule Name
60 68
SMALL
NO_CHARGES


@<TRIPOS>ATOM
1 C1    -2.5263     1.5438    -0.0006 C
2 C2    -3.8835     1.3201    -0.0006 C
3 C3    -4.5098     0.0556    -0.0005 C
4 C4    -3.6972    -1.0915    -0.0005 C
5 C5    -2.3401    -0.8688    -0.0005 C
6 C6    -1.7131     0.3969    -0.0005 C
7 H7    -2.1085     2.5413    -0.0005 H
8 H8    -4.1167    -2.0883    -0.0005 H
9 C9    -0.2936     0.1347    -0.0004 C
10 C10    -6.0530     1.7912    -0.0006 C
11 C11    -5.9313     0.3166    -0.0005 C
12 C12    -0.1695    -1.3329    -0.0004 C
13 O13    -4.8034     2.3444    -0.0007 O
14 O14    -1.4194    -1.8903    -0.0005 O
15 O15    -7.0396     2.4923    -0.0006 O
16 O16     0.8187    -2.0359    -0.0004 O
17 C17    -7.0626    -0.4661    -0.0002 C
18 C18    -7.0604    -1.9930    -0.0003 C
19 C19    -8.4425    -0.1180     0.0003 C
20 C20    -9.1954    -1.2927     0.0009 C
21 C21   -10.5877    -1.1120     0.0016 C
22 C22   -10.8759     0.2376     0.0018 C
23 H23   -11.3322    -1.8999     0.0022 H
24 H24   -11.8644     0.6848     0.0023 H
25 C25     0.8422     0.9224    -0.0003 C
26 C26     0.8396     2.4494    -0.0001 C
27 C27     2.2118     0.5780    -0.0002 C
28 C28     2.9729     1.7550     0.0001 C
29 C29     4.3527     1.5777     0.0001 C
30 C30     4.6665     0.2158    -0.0001 C
31 H31     5.0849     2.3780     0.0002 H
32 N32    -8.3713    -2.4026     0.0008 N
33 N33     2.1523     2.8627     0.0004 N
34 S34    -9.4941     1.2613     0.0009 S
35 S35     3.2538    -0.8090    -0.0003 S
36 O36    -6.0956    -2.7417    -0.0013 O
37 O37    -0.1234     3.1977    -0.0002 O
38 C38     5.9758    -0.3664    -0.0001 C
39 C39     6.3284    -1.7059    -0.0002 C
40 S40     7.4021     0.6363     0.0001 S
41 C41     7.7188    -1.9184    -0.0001 C
42 H42     5.6035    -2.5145    -0.0004 H
43 C43     8.4541    -0.7451     0.0001 C
44 H44     8.1703    -2.9056    -0.0001 H
45 C45     9.8868    -0.5795     0.0003 C
46 C46    10.6229     0.5891     0.0002 C
47 S47    10.9451    -1.9625     0.0007 S
48 C48    12.0240     0.3664     0.0004 C
49 H49    10.1739     1.5781    -0.0001 H
50 C50    12.3463    -0.9653     0.0007 C
51 H51    12.7640     1.1600     0.0004 H
52 H52    13.3306    -1.4196     0.0008 H
53 C53    -8.8114    -3.7767    -0.0004 C
54 H54    -7.9264    -4.4154     0.0039 H
55 H55    -9.4122    -3.9851     0.8907 H
56 H56    -9.4044    -3.9864    -0.8965 H
57 C57     2.5911     4.2375     0.0000 C
58 H58     3.1909     4.4458     0.8917 H
59 H59     3.1835     4.4481    -0.8961 H
60 H60     1.7049     4.8746     0.0045 H
@<TRIPOS>BOND
1 1 2 2
2 1 6 Ar
3 1 7 1
4 2 3 Ar
5 2 13 1
6 3 4 Ar
7 3 11 Ar
8 4 5 2
9 4 8 1
10 5 6 Ar
11 5 14 1
12 6 9 Ar
13 9 12 1
14 9 25 2
15 10 11 1
16 10 13 1
17 10 15 2
18 11 17 2
19 12 14 1
20 12 16 2
21 17 18 1
22 17 19 Ar
23 18 32 Ar
24 18 36 2
25 19 20 Ar
26 19 34 1
27 20 21 Ar
28 20 32 1
29 21 22 2
30 21 23 1
31 22 24 1
32 22 34 1
33 25 26 1
34 25 27 Ar
35 26 33 Ar
36 26 37 2
37 27 28 Ar
38 27 35 1
39 28 29 Ar
40 28 33 Ar
41 29 30 Ar
42 29 31 1
43 30 35 1
44 30 38 Ar
45 32 53 1
46 33 57 1
47 38 39 2
48 38 40 1
49 39 41 Ar
50 39 42 1
51 40 43 1
52 41 43 2
53 41 44 1
54 43 45 Ar
55 45 46 2
56 45 47 1
57 46 48 Ar
58 46 49 1
59 47 50 1
60 48 50 2
61 48 51 1
62 50 52 1
63 53 54 1
64 53 55 1
65 53 56 1
66 57 58 1
67 57 59 1
68 57 60 1
