# TBDOPV-T
# Created by GaussView 6.1.1
#

#
#

@<TRIPOS>MOLECULE
Molecule Name
53 60
SMALL
NO_CHARGES


@<TRIPOS>ATOM
1 C1     0.8462     1.4719     0.0096 C
2 C2     2.2129     1.3128     0.0080 C
3 C3     2.8984     0.0801    -0.0007 C
4 C4     2.1398    -1.1034    -0.0085 C
5 C5     0.7730    -0.9451    -0.0069 C
6 C6     0.0871     0.2886     0.0018 C
7 H7     0.3825     2.4490     0.0162 H
8 H8     2.6050    -2.0799    -0.0153 H
9 C9    -1.3196    -0.0412     0.0005 C
10 C10     4.3552     1.8883     0.0105 C
11 C11     4.3068     0.4095     0.0011 C
12 C12    -1.3707    -1.5145    -0.0092 C
13 O13     3.0810     2.3806     0.0148 O
14 O14    -0.0964    -2.0106    -0.0136 O
15 O15     5.3064     2.6371     0.0148 O
16 O16    -2.3237    -2.2641    -0.0139 O
17 C17     5.4768    -0.3163    -0.0035 C
18 C18     5.5510    -1.8423    -0.0117 C
19 C19     6.8384     0.0979    -0.0015 C
20 C20     7.6478    -1.0383    -0.0079 C
21 C21     9.0298    -0.7895    -0.0074 C
22 C22     9.2521     0.5722    -0.0005 C
23 H23     9.8126    -1.5397    -0.0118 H
24 H24    10.2174     1.0680     0.0015 H
25 C25    -2.4928     0.6890     0.0059 C
26 C26    -2.5652     2.2153     0.0125 C
27 C27    -3.8468     0.2798     0.0057 C
28 C28    -4.6608     1.4179     0.0112 C
29 C29    -6.0327     1.1752     0.0169 C
30 C30    -6.2830    -0.1970     0.0151 C
31 H31    -6.8015     1.9403     0.0311 H
32 N32     6.8800    -2.1881    -0.0136 N
33 N33    -3.8953     2.5653     0.0157 N
34 S34     7.8227     1.5268     0.0053 S
35 S35    -4.8254    -1.1531    -0.0000 S
36 O36     4.6233    -2.6366    -0.0157 O
37 O37    -1.6384     3.0084     0.0147 O
38 C38    -7.5702    -0.8433     0.0222 C
39 C39    -7.8607    -2.1899     0.1507 C
40 S40    -9.0404     0.0777    -0.1432 S
41 C41    -9.2486    -2.4673     0.1162 C
42 H42    -7.1008    -2.9561     0.2745 H
43 C43   -10.0086    -1.3357    -0.0369 C
44 H44    -9.6710    -3.4629     0.2043 H
45 C45     7.3852    -3.5406    -0.0205 C
46 H46     6.5315    -4.2209    -0.0238 H
47 H47     7.9912    -3.7175    -0.9150 H
48 H48     7.9913    -3.7265     0.8722 H
49 C49    -4.3980     3.9192     0.0223 C
50 H50    -5.0052     4.1051    -0.8695 H
51 H51    -5.0012     4.0980     0.9183 H
52 H52    -3.5425     4.5970     0.0231 H
53 H53   -11.0882    -1.2542    -0.0945 H
@<TRIPOS>BOND
1 1 2 2
2 1 6 Ar
3 1 7 1
4 2 3 Ar
5 2 13 1
6 3 4 Ar
7 3 11 Ar
8 4 5 2
9 4 8 1
10 5 6 Ar
11 5 14 1
12 6 9 Ar
13 9 12 1
14 9 25 2
15 10 11 1
16 10 13 1
17 10 15 2
18 11 17 2
19 12 14 1
20 12 16 2
21 17 18 1
22 17 19 Ar
23 18 32 Ar
24 18 36 2
25 19 20 Ar
26 19 34 1
27 20 21 Ar
28 20 32 1
29 21 22 2
30 21 23 1
31 22 24 1
32 22 34 1
33 25 26 1
34 25 27 Ar
35 26 33 Ar
36 26 37 2
37 27 28 Ar
38 27 35 1
39 28 29 Ar
40 28 33 Ar
41 29 30 Ar
42 29 31 1
43 30 35 1
44 30 38 Ar
45 32 45 1
46 33 49 1
47 38 39 2
48 38 40 1
49 39 41 Ar
50 39 42 1
51 40 43 1
52 41 43 2
53 41 44 1
54 43 53 1
55 45 46 1
56 45 47 1
57 45 48 1
58 49 50 1
59 49 51 1
60 49 52 1
