# TBDPPV
# Created by GaussView 6.1.1
#

#
#

@<TRIPOS>MOLECULE
Molecule Name
50 56
SMALL
NO_CHARGES


@<TRIPOS>ATOM
1 C1    -0.2053     1.3189    -0.0000 C
2 C2     1.1687     1.2423     0.0000 C
3 C3     1.9271     0.0531     0.0000 C
4 C4     1.2414    -1.1738    -0.0001 C
5 C5    -0.1325    -1.0978    -0.0001 C
6 C6    -0.8914     0.0920    -0.0001 C
7 H7    -0.7268     2.2665    -0.0000 H
8 H8     1.7635    -2.1210    -0.0000 H
9 C9    -2.2763    -0.3228    -0.0000 C
10 C10     3.2724     1.9461     0.0000 C
11 C11     3.3133     0.4672     0.0000 C
12 C12    -2.2370    -1.7980    -0.0001 C
13 O13     1.9707     2.3604     0.0000 O
14 O14    -0.9350    -2.2145    -0.0001 O
15 O15     4.1769     2.7507     0.0000 O
16 O16    -3.1424    -2.6036    -0.0001 O
17 C17     4.5248    -0.1868     0.0001 C
18 C18     4.6897    -1.7060     0.0001 C
19 C19     5.8590     0.3077     0.0000 C
20 C20     6.7345    -0.7786     0.0002 C
21 C21     8.0992    -0.4483     0.0002 C
22 C22     8.2399     0.9242     0.0001 C
23 H23     8.9253    -1.1504     0.0002 H
24 H24     9.1742     1.4760     0.0001 H
25 C25    -3.4908     0.3330    -0.0001 C
26 C26    -3.6571     1.8517    -0.0002 C
27 C27    -4.8188    -0.1606    -0.0000 C
28 C28    -5.7024     0.9264    -0.0000 C
29 C29    -7.0573     0.6011     0.0000 C
30 C30    -7.2203    -0.7838     0.0001 C
31 H31    -7.8765     1.3114     0.0000 H
32 N32     6.0368    -1.9722     0.0004 N
33 N33    -5.0051     2.1186    -0.0002 N
34 S34     6.7567     1.7928     0.0000 S
35 S35    -5.7110    -1.6436     0.0001 S
36 O36     3.8108    -2.5537    -0.0001 O
37 O37    -2.7794     2.6995    -0.0002 O
38 C38     6.6217    -3.2923    -0.0005 C
39 H39     5.8104    -4.0226     0.0024 H
40 H40     7.2351    -3.4375    -0.8958 H
41 H41     7.2402    -3.4361     0.8914 H
42 C42    -5.5893     3.4393    -0.0001 C
43 H43    -6.2063     3.5834    -0.8930 H
44 H44    -6.2036     3.5846     0.8945 H
45 H45    -4.7773     4.1688    -0.0018 H
46 C46    -8.4521    -1.5503     0.0002 C
47 H47    -8.3447    -2.6348    -0.0000 H
48 C48    -9.6871    -1.0204     0.0003 C
49 H49    -9.8622     0.0532     0.0006 H
50 H50   -10.5618    -1.6653     0.0002 H
@<TRIPOS>BOND
1 1 2 2
2 1 6 Ar
3 1 7 1
4 2 3 Ar
5 2 13 1
6 3 4 Ar
7 3 11 Ar
8 4 5 2
9 4 8 1
10 5 6 Ar
11 5 14 1
12 6 9 Ar
13 9 12 1
14 9 25 2
15 10 11 1
16 10 13 1
17 10 15 2
18 11 17 2
19 12 14 1
20 12 16 2
21 17 18 1
22 17 19 Ar
23 18 32 Ar
24 18 36 2
25 19 20 Ar
26 19 34 1
27 20 21 Ar
28 20 32 1
29 21 22 2
30 21 23 1
31 22 24 1
32 22 34 1
33 25 26 1
34 25 27 Ar
35 26 33 Ar
36 26 37 2
37 27 28 Ar
38 27 35 1
39 28 29 Ar
40 28 33 Ar
41 29 30 Ar
42 29 31 1
43 30 35 1
44 30 46 1
45 32 38 1
46 33 42 1
47 38 39 1
48 38 40 1
49 38 41 1
50 42 43 1
51 42 44 1
52 42 45 1
53 46 47 1
54 46 48 2
55 48 49 1
56 48 50 1
