# N2200 PBC
# Created by GaussView 6.1.1
#

#
#

@<TRIPOS>MOLECULE
Molecule Name
66 71
SMALL
NO_CHARGES


@<TRIPOS>ATOM
1 C1     2.7729    -2.4204    -0.2423 C
2 C2     1.7098    -1.4960    -0.2069 C
3 C3     1.9536    -0.1194    -0.3924 C
4 C4     3.3307     0.3769    -0.6314 C
5 C5     2.5337    -3.7686    -0.0420 C
6 C6     0.3796    -1.9294     0.0302 C
7 C7     0.1727    -3.3125     0.2497 C
8 C8     1.2282    -4.2089     0.2071 C
9 C9    -1.1757    -3.8303     0.5489 C
10 C10    -2.0502    -1.5089     0.4033 C
11 C11    -0.6983    -0.9985     0.0521 C
12 C12    -0.4417     0.3691    -0.1800 C
13 C13     0.9108     0.7713    -0.3706 C
14 H14     1.1362     1.8179    -0.5522 H
15 C15    -1.4320     1.4424    -0.2739 C
16 C16    -2.6236     1.5072    -0.9644 C
17 S17    -1.0646     2.9987     0.4245 S
18 C18    -3.2188     2.7827    -0.9474 C
19 H19    -3.0481     0.6574    -1.4828 H
20 C20    -2.4990     3.7167    -0.2259 C
21 H21    -4.1434     3.0220    -1.4625 H
22 C22    -2.8154     5.1019     0.0317 C
23 C23    -1.9692     6.1275     0.4000 C
24 S24    -4.4479     5.6838    -0.1073 S
25 C25    -2.6333     7.3701     0.5576 C
26 H26    -0.9001     5.9918     0.5285 H
27 C27    -3.9772     7.2841     0.3073 C
28 H28    -2.1356     8.2928     0.8352 H
29 C29    -3.5126    -3.3615     1.0421 C
30 H30    -4.0100    -2.5679     1.6004 H
31 H31    -3.3771    -4.2379     1.6772 H
32 C32     5.7014    -0.1159    -0.9604 C
33 H33     5.6300     0.7711    -1.5914 H
34 H34     6.2272    -0.9106    -1.4916 H
35 N35    -2.1844    -2.8816     0.6595 N
36 N36     4.3422    -0.5822    -0.6875 N
37 O37    -1.4037    -5.0189     0.7110 O
38 O38    -3.0358    -0.7981     0.4971 O
39 O39     3.5798     1.5614    -0.7768 O
40 H40     1.0144    -5.2594     0.3788 H
41 C41     4.1578    -1.9533    -0.4880 C
42 O42     5.1051    -2.7200    -0.5192 O
43 C43     6.4425     0.2234     0.3239 C
44 H44     6.5025    -0.6674     0.9704 H
45 H45     5.9054     1.0156     0.8706 H
46 C46    -4.3440    -3.7358    -0.1753 C
47 H47    -4.4649    -2.8596    -0.8335 H
48 H48    -3.8389    -4.5330    -0.7446 H
49 O49    -5.5908    -4.1764     0.2959 O
50 O50     7.7257     0.6567    -0.0443 O
51 C51     8.5304     1.0045     1.0630 C
52 H52     8.6343     0.1351     1.7339 H
53 H53     8.0426     1.8094     1.6381 H
54 C54     9.8826     1.4534     0.5566 C
55 H55    10.5300     1.7303     1.3959 H
56 H56    10.3692     0.6504    -0.0063 H
57 H57     9.7785     2.3215    -0.1022 H
58 C58    -6.4646    -4.5723    -0.7399 C
59 H59    -6.0039    -5.3872    -1.3233 H
60 H60    -6.6316    -3.7267    -1.4286 H
61 C61    -7.7696    -5.0264    -0.1256 C
62 H62    -8.2300    -4.2138     0.4456 H
63 H63    -8.4692    -5.3406    -0.9080 H
64 H64    -7.6034    -5.8712     0.5506 H
65 H65     3.3674    -4.4628    -0.0741 H
66 H66    -4.7179     8.0724     0.3461 H
@<TRIPOS>BOND
1 1 2 Ar
2 1 5 2
3 1 41 1
4 2 3 Ar
5 2 6 Ar
6 3 4 1
7 3 13 2
8 4 36 1
9 4 39 2
10 5 8 Ar
11 5 65 1
12 6 7 Ar
13 6 11 Ar
14 7 8 2
15 7 9 1
16 8 40 1
17 9 35 1
18 9 37 2
19 10 11 1
20 10 35 1
21 10 38 2
22 11 12 Ar
23 12 13 Ar
24 12 15 1
25 13 14 1
26 15 16 2
27 15 17 1
28 16 18 Ar
29 16 19 1
30 17 20 1
31 18 20 2
32 18 21 1
33 20 22 Ar
34 22 23 2
35 22 24 1
36 23 25 Ar
37 23 26 1
38 24 27 1
39 25 27 2
40 25 28 1
41 27 66 1
42 29 30 1
43 29 31 1
44 29 35 1
45 29 46 1
46 32 33 1
47 32 34 1
48 32 36 1
49 32 43 1
50 36 41 1
51 41 42 2
52 43 44 1
53 43 45 1
54 43 50 1
55 46 47 1
56 46 48 1
57 46 49 1
58 49 58 1
59 50 51 1
60 51 52 1
61 51 53 1
62 51 54 1
63 54 55 1
64 54 56 1
65 54 57 1
66 58 59 1
67 58 60 1
68 58 61 1
69 61 62 1
70 61 63 1
71 61 64 1
