# UFBDPPV
# Created by GaussView 6.1.1
#

#
#

@<TRIPOS>MOLECULE
Molecule Name
70 76
SMALL
NO_CHARGES


@<TRIPOS>ATOM
1 C1     0.6836     0.4709    -0.1896 C
2 C2     2.0127     0.8130    -0.0934 C
3 C3     3.0980    -0.0829    -0.0049 C
4 C4     2.8045    -1.4581    -0.0165 C
5 C5     1.4755    -1.8007    -0.1128 C
6 C6     0.3899    -0.9044    -0.2002 C
7 H7    -0.0853     1.2242    -0.2732 H
8 H8     3.5740    -2.2110     0.0653 H
9 C9    -0.8132    -1.7238    -0.2235 C
10 C10     3.7838     2.1512    -0.0377 C
11 C11     4.3023     0.7367     0.0184 C
12 C12    -0.2971    -3.1367    -0.1706 C
13 O13     2.4210     2.1215    -0.0959 O
14 O14     1.0665    -3.1084    -0.1121 O
15 O15     4.3606     3.2057    -0.0079 O
16 O16    -0.8749    -4.1912    -0.2020 O
17 C17     5.6428     0.4284     0.0858 C
18 C18     6.1367    -0.9794     0.3426 C
19 C19    -2.1560    -1.4142    -0.2861 C
20 C20    -2.6505    -0.0070    -0.5390 C
21 N21     7.5106    -0.9375     0.3590 N
22 N22    -4.0267    -0.0455    -0.5551 N
23 O23     5.4933    -1.9970     0.5399 O
24 O24    -2.0100     1.0115    -0.7375 O
25 C25     8.3193    -2.1109     0.6054 C
26 H26     7.6301    -2.9415     0.7678 H
27 H27     8.9613    -2.3292    -0.2525 H
28 H28     8.9429    -1.9728     1.4929 H
29 C29    -4.8146     1.1439    -0.8193 C
30 H30    -4.1737     1.8270    -1.3823 H
31 H31    -5.6777     0.8852    -1.4352 H
32 C32     7.9511     0.3544     0.1262 C
33 C33     6.8540     1.2401    -0.0364 C
34 C34    -3.3628    -2.2196    -0.1599 C
35 C35    -4.4650    -1.3397    -0.3145 C
36 C36     7.1158     2.5891    -0.3128 C
37 C37     8.4332     3.0323    -0.4111 C
38 C38     9.5033     2.1568    -0.2378 C
39 C39     9.2508     0.8191     0.0284 C
40 C40    -3.6296    -3.5705     0.1186 C
41 C41    -5.7609    -1.8073    -0.2022 C
42 C42    -4.9380    -4.0127     0.2265 C
43 C43    -6.0393    -3.1536     0.0693 C
44 C44    -7.4329    -3.5847     0.1712 C
45 C45    -7.8565    -4.8210     0.4700 C
46 H46     8.6285     4.0793    -0.6209 H
47 H47     6.3002     3.2850    -0.4343 H
48 H48    -2.8147    -4.2688     0.2318 H
49 H49    -5.1138    -5.0637     0.4311 H
50 H50    -8.1763    -2.8136    -0.0141 H
51 H51    -7.1809    -5.6471     0.6747 H
52 F52    -6.7911    -0.9428    -0.3448 F
53 F53    10.2899    -0.0309     0.1860 F
54 C54    -5.2700     1.8237     0.4642 C
55 H55    -5.8935     1.1402     1.0630 H
56 H56    -4.3903     2.1036     1.0681 H
57 O57    -6.0026     2.9591     0.0883 O
58 C58    -6.4691     3.7035     1.1887 C
59 H59    -7.0638     3.0651     1.8617 H
60 H60    -5.6172     4.1078     1.7612 H
61 C61    -7.3237     4.8447     0.6971 C
62 H62    -7.4714     5.5642     1.5216 H
63 H63    -6.7998     5.3680    -0.1198 H
64 O64    -8.5611     4.3483     0.2554 O
65 C65    -9.3771     5.3486    -0.2953 C
66 H66   -10.3108     4.8718    -0.6026 H
67 H67    -9.6025     6.1376     0.4407 H
68 H68    -8.9048     5.8137    -1.1750 H
69 H69    10.5338     2.4915    -0.3070 H
70 H70    -8.9183    -5.0418     0.5200 H
@<TRIPOS>BOND
1 1 2 2
2 1 6 Ar
3 1 7 1
4 2 3 Ar
5 2 13 1
6 3 4 Ar
7 3 11 1
8 4 5 2
9 4 8 1
10 5 6 Ar
11 5 14 1
12 6 9 1
13 9 12 1
14 9 19 2
15 10 11 1
16 10 13 1
17 10 15 2
18 11 17 2
19 12 14 1
20 12 16 2
21 17 18 1
22 17 33 1
23 18 21 Ar
24 18 23 2
25 19 20 1
26 19 34 1
27 20 22 Ar
28 20 24 2
29 21 25 1
30 21 32 1
31 22 29 1
32 22 35 1
33 25 26 1
34 25 27 1
35 25 28 1
36 29 30 1
37 29 31 1
38 29 54 1
39 32 33 Ar
40 32 39 2
41 33 36 Ar
42 34 35 Ar
43 34 40 Ar
44 35 41 2
45 36 37 Ar
46 36 47 1
47 37 38 Ar
48 37 46 1
49 38 39 Ar
50 38 69 1
51 39 53 1
52 40 42 2
53 40 48 1
54 41 43 Ar
55 41 52 1
56 42 43 Ar
57 42 49 1
58 43 44 1
59 44 45 2
60 44 50 1
61 45 51 1
62 45 70 1
63 54 55 1
64 54 56 1
65 54 57 1
66 57 58 1
67 58 59 1
68 58 60 1
69 58 61 1
70 61 62 1
71 61 63 1
72 61 64 1
73 64 65 1
74 65 66 1
75 65 67 1
76 65 68 1
